
---------- Begin Simulation Statistics ----------
sim_seconds                                  0.104434                       # Number of seconds simulated
sim_ticks                                104433830280                       # Number of ticks simulated
final_tick                               634071547590                       # Number of ticks from beginning of simulation (restored from checkpoints and never reset)
sim_freq                                 1000000000000                       # Frequency of simulated ticks
host_inst_rate                                 206503                       # Simulator instruction rate (inst/s)
host_op_rate                                   267642                       # Simulator op (including micro ops) rate (op/s)
host_tick_rate                                6714927                       # Simulator tick rate (ticks/s)
host_mem_usage                               16921976                       # Number of bytes of host memory used
host_seconds                                 15552.49                       # Real time elapsed on the host
sim_insts                                  3211642054                       # Number of instructions simulated
sim_ops                                    4162498244                       # Number of ops (including micro ops) simulated
system.physmem.bytes_read::switch_cpus0.inst         1280                       # Number of bytes read from this memory
system.physmem.bytes_read::switch_cpus0.data      2208768                       # Number of bytes read from this memory
system.physmem.bytes_read::switch_cpus1.inst         1792                       # Number of bytes read from this memory
system.physmem.bytes_read::switch_cpus1.data      1504256                       # Number of bytes read from this memory
system.physmem.bytes_read::switch_cpus2.inst         1792                       # Number of bytes read from this memory
system.physmem.bytes_read::switch_cpus2.data       530688                       # Number of bytes read from this memory
system.physmem.bytes_read::total              4248576                       # Number of bytes read from this memory
system.physmem.bytes_inst_read::switch_cpus0.inst         1280                       # Number of instructions bytes read from this memory
system.physmem.bytes_inst_read::switch_cpus1.inst         1792                       # Number of instructions bytes read from this memory
system.physmem.bytes_inst_read::switch_cpus2.inst         1792                       # Number of instructions bytes read from this memory
system.physmem.bytes_inst_read::total            4864                       # Number of instructions bytes read from this memory
system.physmem.bytes_written::writebacks      1182592                       # Number of bytes written to this memory
system.physmem.bytes_written::total           1182592                       # Number of bytes written to this memory
system.physmem.num_reads::switch_cpus0.inst           10                       # Number of read requests responded to by this memory
system.physmem.num_reads::switch_cpus0.data        17256                       # Number of read requests responded to by this memory
system.physmem.num_reads::switch_cpus1.inst           14                       # Number of read requests responded to by this memory
system.physmem.num_reads::switch_cpus1.data        11752                       # Number of read requests responded to by this memory
system.physmem.num_reads::switch_cpus2.inst           14                       # Number of read requests responded to by this memory
system.physmem.num_reads::switch_cpus2.data         4146                       # Number of read requests responded to by this memory
system.physmem.num_reads::total                 33192                       # Number of read requests responded to by this memory
system.physmem.num_writes::writebacks            9239                       # Number of write requests responded to by this memory
system.physmem.num_writes::functional               0                       # Number of write requests responded to by this memory
system.physmem.num_writes::interrupt                0                       # Number of write requests responded to by this memory
system.physmem.num_writes::switch_cpus0.dtb.walker            0                       # Number of write requests responded to by this memory
system.physmem.num_writes::switch_cpus0.itb.walker            0                       # Number of write requests responded to by this memory
system.physmem.num_writes::switch_cpus0.inst            0                       # Number of write requests responded to by this memory
system.physmem.num_writes::switch_cpus0.data            0                       # Number of write requests responded to by this memory
system.physmem.num_writes::switch_cpus1.dtb.walker            0                       # Number of write requests responded to by this memory
system.physmem.num_writes::switch_cpus1.itb.walker            0                       # Number of write requests responded to by this memory
system.physmem.num_writes::switch_cpus1.inst            0                       # Number of write requests responded to by this memory
system.physmem.num_writes::switch_cpus1.data            0                       # Number of write requests responded to by this memory
system.physmem.num_writes::switch_cpus2.dtb.walker            0                       # Number of write requests responded to by this memory
system.physmem.num_writes::switch_cpus2.itb.walker            0                       # Number of write requests responded to by this memory
system.physmem.num_writes::switch_cpus2.inst            0                       # Number of write requests responded to by this memory
system.physmem.num_writes::switch_cpus2.data            0                       # Number of write requests responded to by this memory
system.physmem.num_writes::cpu0.dtb.walker            0                       # Number of write requests responded to by this memory
system.physmem.num_writes::cpu0.itb.walker            0                       # Number of write requests responded to by this memory
system.physmem.num_writes::cpu0.inst                0                       # Number of write requests responded to by this memory
system.physmem.num_writes::cpu0.data                0                       # Number of write requests responded to by this memory
system.physmem.num_writes::cpu1.dtb.walker            0                       # Number of write requests responded to by this memory
system.physmem.num_writes::cpu1.itb.walker            0                       # Number of write requests responded to by this memory
system.physmem.num_writes::cpu1.inst                0                       # Number of write requests responded to by this memory
system.physmem.num_writes::cpu1.data                0                       # Number of write requests responded to by this memory
system.physmem.num_writes::cpu2.dtb.walker            0                       # Number of write requests responded to by this memory
system.physmem.num_writes::cpu2.itb.walker            0                       # Number of write requests responded to by this memory
system.physmem.num_writes::cpu2.inst                0                       # Number of write requests responded to by this memory
system.physmem.num_writes::cpu2.data                0                       # Number of write requests responded to by this memory
system.physmem.num_writes::total                 9239                       # Number of write requests responded to by this memory
system.physmem.bw_read::switch_cpus0.inst        12257                       # Total read bandwidth from this memory (bytes/s)
system.physmem.bw_read::switch_cpus0.data     21149928                       # Total read bandwidth from this memory (bytes/s)
system.physmem.bw_read::switch_cpus1.inst        17159                       # Total read bandwidth from this memory (bytes/s)
system.physmem.bw_read::switch_cpus1.data     14403915                       # Total read bandwidth from this memory (bytes/s)
system.physmem.bw_read::switch_cpus2.inst        17159                       # Total read bandwidth from this memory (bytes/s)
system.physmem.bw_read::switch_cpus2.data      5081572                       # Total read bandwidth from this memory (bytes/s)
system.physmem.bw_read::total                40681990                       # Total read bandwidth from this memory (bytes/s)
system.physmem.bw_inst_read::switch_cpus0.inst        12257                       # Instruction read bandwidth from this memory (bytes/s)
system.physmem.bw_inst_read::switch_cpus1.inst        17159                       # Instruction read bandwidth from this memory (bytes/s)
system.physmem.bw_inst_read::switch_cpus2.inst        17159                       # Instruction read bandwidth from this memory (bytes/s)
system.physmem.bw_inst_read::total              46575                       # Instruction read bandwidth from this memory (bytes/s)
system.physmem.bw_write::writebacks          11323840                       # Write bandwidth from this memory (bytes/s)
system.physmem.bw_write::total               11323840                       # Write bandwidth from this memory (bytes/s)
system.physmem.bw_total::writebacks          11323840                       # Total bandwidth to/from this memory (bytes/s)
system.physmem.bw_total::switch_cpus0.inst        12257                       # Total bandwidth to/from this memory (bytes/s)
system.physmem.bw_total::switch_cpus0.data     21149928                       # Total bandwidth to/from this memory (bytes/s)
system.physmem.bw_total::switch_cpus1.inst        17159                       # Total bandwidth to/from this memory (bytes/s)
system.physmem.bw_total::switch_cpus1.data     14403915                       # Total bandwidth to/from this memory (bytes/s)
system.physmem.bw_total::switch_cpus2.inst        17159                       # Total bandwidth to/from this memory (bytes/s)
system.physmem.bw_total::switch_cpus2.data      5081572                       # Total bandwidth to/from this memory (bytes/s)
system.physmem.bw_total::total               52005830                       # Total bandwidth to/from this memory (bytes/s)
system.switch_cpus0.dtb.inst_hits                   0                       # ITB inst hits
system.switch_cpus0.dtb.inst_misses                 0                       # ITB inst misses
system.switch_cpus0.dtb.read_hits                   0                       # DTB read hits
system.switch_cpus0.dtb.read_misses                 0                       # DTB read misses
system.switch_cpus0.dtb.write_hits                  0                       # DTB write hits
system.switch_cpus0.dtb.write_misses                0                       # DTB write misses
system.switch_cpus0.dtb.flush_tlb                   0                       # Number of times complete TLB was flushed
system.switch_cpus0.dtb.flush_tlb_mva               0                       # Number of times TLB was flushed by MVA
system.switch_cpus0.dtb.flush_tlb_mva_asid            0                       # Number of times TLB was flushed by MVA & ASID
system.switch_cpus0.dtb.flush_tlb_asid              0                       # Number of times TLB was flushed by ASID
system.switch_cpus0.dtb.flush_entries               0                       # Number of entries that have been flushed from TLB
system.switch_cpus0.dtb.align_faults                0                       # Number of TLB faults due to alignment restrictions
system.switch_cpus0.dtb.prefetch_faults             0                       # Number of TLB faults due to prefetch
system.switch_cpus0.dtb.domain_faults               0                       # Number of TLB faults due to domain restrictions
system.switch_cpus0.dtb.perms_faults                0                       # Number of TLB faults due to permissions restrictions
system.switch_cpus0.dtb.read_accesses               0                       # DTB read accesses
system.switch_cpus0.dtb.write_accesses              0                       # DTB write accesses
system.switch_cpus0.dtb.inst_accesses               0                       # ITB inst accesses
system.switch_cpus0.dtb.hits                        0                       # DTB hits
system.switch_cpus0.dtb.misses                      0                       # DTB misses
system.switch_cpus0.dtb.accesses                    0                       # DTB accesses
system.switch_cpus0.itb.inst_hits                   0                       # ITB inst hits
system.switch_cpus0.itb.inst_misses                 0                       # ITB inst misses
system.switch_cpus0.itb.read_hits                   0                       # DTB read hits
system.switch_cpus0.itb.read_misses                 0                       # DTB read misses
system.switch_cpus0.itb.write_hits                  0                       # DTB write hits
system.switch_cpus0.itb.write_misses                0                       # DTB write misses
system.switch_cpus0.itb.flush_tlb                   0                       # Number of times complete TLB was flushed
system.switch_cpus0.itb.flush_tlb_mva               0                       # Number of times TLB was flushed by MVA
system.switch_cpus0.itb.flush_tlb_mva_asid            0                       # Number of times TLB was flushed by MVA & ASID
system.switch_cpus0.itb.flush_tlb_asid              0                       # Number of times TLB was flushed by ASID
system.switch_cpus0.itb.flush_entries               0                       # Number of entries that have been flushed from TLB
system.switch_cpus0.itb.align_faults                0                       # Number of TLB faults due to alignment restrictions
system.switch_cpus0.itb.prefetch_faults             0                       # Number of TLB faults due to prefetch
system.switch_cpus0.itb.domain_faults               0                       # Number of TLB faults due to domain restrictions
system.switch_cpus0.itb.perms_faults                0                       # Number of TLB faults due to permissions restrictions
system.switch_cpus0.itb.read_accesses               0                       # DTB read accesses
system.switch_cpus0.itb.write_accesses              0                       # DTB write accesses
system.switch_cpus0.itb.inst_accesses               0                       # ITB inst accesses
system.switch_cpus0.itb.hits                        0                       # DTB hits
system.switch_cpus0.itb.misses                      0                       # DTB misses
system.switch_cpus0.itb.accesses                    0                       # DTB accesses
system.cpu0.workload.num_syscalls                   0                       # Number of system calls
system.switch_cpus0.numCycles               250440841                       # number of cpu cycles simulated
system.switch_cpus0.numWorkItemsStarted             0                       # number of work items this cpu started
system.switch_cpus0.numWorkItemsCompleted            0                       # number of work items this cpu completed
system.switch_cpus0.BPredUnit.lookups        21414807                       # Number of BP lookups
system.switch_cpus0.BPredUnit.condPredicted     17437623                       # Number of conditional branches predicted
system.switch_cpus0.BPredUnit.condIncorrect      1919075                       # Number of conditional branches incorrect
system.switch_cpus0.BPredUnit.BTBLookups      8803443                       # Number of BTB lookups
system.switch_cpus0.BPredUnit.BTBHits         8138536                       # Number of BTB hits
system.switch_cpus0.BPredUnit.BTBCorrect            0                       # Number of correct BTB predictions (this stat may not work properly.
system.switch_cpus0.BPredUnit.usedRAS         2236292                       # Number of times the RAS was used to get a target.
system.switch_cpus0.BPredUnit.RASInCorrect        86971                       # Number of incorrect RAS predictions.
system.switch_cpus0.fetch.icacheStallCycles    193735892                       # Number of cycles fetch is stalled on an Icache miss
system.switch_cpus0.fetch.Insts             120536966                       # Number of instructions fetch has processed
system.switch_cpus0.fetch.Branches           21414807                       # Number of branches that fetch encountered
system.switch_cpus0.fetch.predictedBranches     10374828                       # Number of branches that fetch has predicted taken
system.switch_cpus0.fetch.Cycles             25475813                       # Number of cycles fetch has run and was not squashing or blocked
system.switch_cpus0.fetch.SquashCycles        5744241                       # Number of cycles fetch has spent squashing
system.switch_cpus0.fetch.BlockedCycles       8588314                       # Number of cycles fetch has spent blocked
system.switch_cpus0.fetch.CacheLines         11852653                       # Number of cache lines fetched
system.switch_cpus0.fetch.IcacheSquashes      1918281                       # Number of outstanding Icache misses that were squashed
system.switch_cpus0.fetch.rateDist::samples    231594028                       # Number of instructions fetched each cycle (Total)
system.switch_cpus0.fetch.rateDist::mean     0.629332                       # Number of instructions fetched each cycle (Total)
system.switch_cpus0.fetch.rateDist::stdev     1.997847                       # Number of instructions fetched each cycle (Total)
system.switch_cpus0.fetch.rateDist::underflows            0      0.00%      0.00% # Number of instructions fetched each cycle (Total)
system.switch_cpus0.fetch.rateDist::0       206118215     89.00%     89.00% # Number of instructions fetched each cycle (Total)
system.switch_cpus0.fetch.rateDist::1         2725606      1.18%     90.18% # Number of instructions fetched each cycle (Total)
system.switch_cpus0.fetch.rateDist::2         2139797      0.92%     91.10% # Number of instructions fetched each cycle (Total)
system.switch_cpus0.fetch.rateDist::3         2312399      1.00%     92.10% # Number of instructions fetched each cycle (Total)
system.switch_cpus0.fetch.rateDist::4         1953505      0.84%     92.94% # Number of instructions fetched each cycle (Total)
system.switch_cpus0.fetch.rateDist::5         1106210      0.48%     93.42% # Number of instructions fetched each cycle (Total)
system.switch_cpus0.fetch.rateDist::6          757181      0.33%     93.75% # Number of instructions fetched each cycle (Total)
system.switch_cpus0.fetch.rateDist::7         1929984      0.83%     94.58% # Number of instructions fetched each cycle (Total)
system.switch_cpus0.fetch.rateDist::8        12551131      5.42%    100.00% # Number of instructions fetched each cycle (Total)
system.switch_cpus0.fetch.rateDist::overflows            0      0.00%    100.00% # Number of instructions fetched each cycle (Total)
system.switch_cpus0.fetch.rateDist::min_value            0                       # Number of instructions fetched each cycle (Total)
system.switch_cpus0.fetch.rateDist::max_value            8                       # Number of instructions fetched each cycle (Total)
system.switch_cpus0.fetch.rateDist::total    231594028                       # Number of instructions fetched each cycle (Total)
system.switch_cpus0.fetch.branchRate         0.085508                       # Number of branch fetches per cycle
system.switch_cpus0.fetch.rate               0.481299                       # Number of inst fetches per cycle
system.switch_cpus0.decode.IdleCycles       191398537                       # Number of cycles decode is idle
system.switch_cpus0.decode.BlockedCycles     10964433                       # Number of cycles decode is blocked
system.switch_cpus0.decode.RunCycles         25334388                       # Number of cycles decode is running
system.switch_cpus0.decode.UnblockCycles       109182                       # Number of cycles decode is unblocking
system.switch_cpus0.decode.SquashCycles       3787484                       # Number of cycles decode is squashing
system.switch_cpus0.decode.BranchResolved      3651058                       # Number of times decode resolved a branch
system.switch_cpus0.decode.BranchMispred         6525                       # Number of times decode detected a branch misprediction
system.switch_cpus0.decode.DecodedInsts     145470579                       # Number of instructions handled by decode
system.switch_cpus0.decode.SquashedInsts        51649                       # Number of squashed instructions handled by decode
system.switch_cpus0.rename.SquashCycles       3787484                       # Number of cycles rename is squashing
system.switch_cpus0.rename.IdleCycles       191655683                       # Number of cycles rename is idle
system.switch_cpus0.rename.BlockCycles        7336749                       # Number of cycles rename is blocking
system.switch_cpus0.rename.serializeStallCycles      2472029                       # count of cycles rename stalled for serializing inst
system.switch_cpus0.rename.RunCycles         25187542                       # Number of cycles rename is running
system.switch_cpus0.rename.UnblockCycles      1154529                       # Number of cycles rename is unblocking
system.switch_cpus0.rename.RenamedInsts     145257101                       # Number of instructions processed by rename
system.switch_cpus0.rename.ROBFullEvents         2264                       # Number of times rename has blocked due to ROB full
system.switch_cpus0.rename.IQFullEvents        424185                       # Number of times rename has blocked due to IQ full
system.switch_cpus0.rename.LSQFullEvents       569439                       # Number of times rename has blocked due to LSQ full
system.switch_cpus0.rename.FullRegisterEvents        37600                       # Number of times there has been no free registers
system.switch_cpus0.rename.RenamedOperands    203257011                       # Number of destination operands rename has renamed
system.switch_cpus0.rename.RenameLookups    676979311                       # Number of register rename lookups that rename has made
system.switch_cpus0.rename.int_rename_lookups    676979311                       # Number of integer rename lookups
system.switch_cpus0.rename.CommittedMaps    168450697                       # Number of HB maps that are committed
system.switch_cpus0.rename.UndoneMaps        34806305                       # Number of HB maps that are undone due to squashing
system.switch_cpus0.rename.serializingInsts        33625                       # count of serializing insts renamed
system.switch_cpus0.rename.tempSerializingInsts        17545                       # count of temporary serializing insts renamed
system.switch_cpus0.rename.skidInsts          3612586                       # count of insts added to the skid buffer
system.switch_cpus0.memDep0.insertedLoads     13983572                       # Number of loads inserted to the mem dependence unit.
system.switch_cpus0.memDep0.insertedStores      7849371                       # Number of stores inserted to the mem dependence unit.
system.switch_cpus0.memDep0.conflictingLoads       295651                       # Number of conflicting loads.
system.switch_cpus0.memDep0.conflictingStores      1701070                       # Number of conflicting stores.
system.switch_cpus0.iq.iqInstsAdded         144744403                       # Number of instructions added to the IQ (excludes non-spec)
system.switch_cpus0.iq.iqNonSpecInstsAdded        33624                       # Number of non-speculative instructions added to the IQ
system.switch_cpus0.iq.iqInstsIssued        137437868                       # Number of instructions issued
system.switch_cpus0.iq.iqSquashedInstsIssued        82809                       # Number of squashed instructions issued
system.switch_cpus0.iq.iqSquashedInstsExamined     20229758                       # Number of squashed instructions iterated over during squash; mainly for profiling
system.switch_cpus0.iq.iqSquashedOperandsExamined     41336911                       # Number of squashed operands that are examined and possibly removed from graph
system.switch_cpus0.iq.iqSquashedNonSpecRemoved         1464                       # Number of squashed non-spec instructions that were removed
system.switch_cpus0.iq.issued_per_cycle::samples    231594028                       # Number of insts issued each cycle
system.switch_cpus0.iq.issued_per_cycle::mean     0.593443                       # Number of insts issued each cycle
system.switch_cpus0.iq.issued_per_cycle::stdev     1.298256                       # Number of insts issued each cycle
system.switch_cpus0.iq.issued_per_cycle::underflows            0      0.00%      0.00% # Number of insts issued each cycle
system.switch_cpus0.iq.issued_per_cycle::0    173540401     74.93%     74.93% # Number of insts issued each cycle
system.switch_cpus0.iq.issued_per_cycle::1     24504619     10.58%     85.51% # Number of insts issued each cycle
system.switch_cpus0.iq.issued_per_cycle::2     12389320      5.35%     90.86% # Number of insts issued each cycle
system.switch_cpus0.iq.issued_per_cycle::3      7986319      3.45%     94.31% # Number of insts issued each cycle
system.switch_cpus0.iq.issued_per_cycle::4      6572212      2.84%     97.15% # Number of insts issued each cycle
system.switch_cpus0.iq.issued_per_cycle::5      2583522      1.12%     98.27% # Number of insts issued each cycle
system.switch_cpus0.iq.issued_per_cycle::6      3186630      1.38%     99.64% # Number of insts issued each cycle
system.switch_cpus0.iq.issued_per_cycle::7       778626      0.34%     99.98% # Number of insts issued each cycle
system.switch_cpus0.iq.issued_per_cycle::8        52379      0.02%    100.00% # Number of insts issued each cycle
system.switch_cpus0.iq.issued_per_cycle::overflows            0      0.00%    100.00% # Number of insts issued each cycle
system.switch_cpus0.iq.issued_per_cycle::min_value            0                       # Number of insts issued each cycle
system.switch_cpus0.iq.issued_per_cycle::max_value            8                       # Number of insts issued each cycle
system.switch_cpus0.iq.issued_per_cycle::total    231594028                       # Number of insts issued each cycle
system.switch_cpus0.iq.fu_full::No_OpClass            0      0.00%      0.00% # attempts to use FU when none available
system.switch_cpus0.iq.fu_full::IntAlu         961407     75.43%     75.43% # attempts to use FU when none available
system.switch_cpus0.iq.fu_full::IntMult             0      0.00%     75.43% # attempts to use FU when none available
system.switch_cpus0.iq.fu_full::IntDiv              0      0.00%     75.43% # attempts to use FU when none available
system.switch_cpus0.iq.fu_full::FloatAdd            0      0.00%     75.43% # attempts to use FU when none available
system.switch_cpus0.iq.fu_full::FloatCmp            0      0.00%     75.43% # attempts to use FU when none available
system.switch_cpus0.iq.fu_full::FloatCvt            0      0.00%     75.43% # attempts to use FU when none available
system.switch_cpus0.iq.fu_full::FloatMult            0      0.00%     75.43% # attempts to use FU when none available
system.switch_cpus0.iq.fu_full::FloatDiv            0      0.00%     75.43% # attempts to use FU when none available
system.switch_cpus0.iq.fu_full::FloatSqrt            0      0.00%     75.43% # attempts to use FU when none available
system.switch_cpus0.iq.fu_full::SimdAdd             0      0.00%     75.43% # attempts to use FU when none available
system.switch_cpus0.iq.fu_full::SimdAddAcc            0      0.00%     75.43% # attempts to use FU when none available
system.switch_cpus0.iq.fu_full::SimdAlu             0      0.00%     75.43% # attempts to use FU when none available
system.switch_cpus0.iq.fu_full::SimdCmp             0      0.00%     75.43% # attempts to use FU when none available
system.switch_cpus0.iq.fu_full::SimdCvt             0      0.00%     75.43% # attempts to use FU when none available
system.switch_cpus0.iq.fu_full::SimdMisc            0      0.00%     75.43% # attempts to use FU when none available
system.switch_cpus0.iq.fu_full::SimdMult            0      0.00%     75.43% # attempts to use FU when none available
system.switch_cpus0.iq.fu_full::SimdMultAcc            0      0.00%     75.43% # attempts to use FU when none available
system.switch_cpus0.iq.fu_full::SimdShift            0      0.00%     75.43% # attempts to use FU when none available
system.switch_cpus0.iq.fu_full::SimdShiftAcc            0      0.00%     75.43% # attempts to use FU when none available
system.switch_cpus0.iq.fu_full::SimdSqrt            0      0.00%     75.43% # attempts to use FU when none available
system.switch_cpus0.iq.fu_full::SimdFloatAdd            0      0.00%     75.43% # attempts to use FU when none available
system.switch_cpus0.iq.fu_full::SimdFloatAlu            0      0.00%     75.43% # attempts to use FU when none available
system.switch_cpus0.iq.fu_full::SimdFloatCmp            0      0.00%     75.43% # attempts to use FU when none available
system.switch_cpus0.iq.fu_full::SimdFloatCvt            0      0.00%     75.43% # attempts to use FU when none available
system.switch_cpus0.iq.fu_full::SimdFloatDiv            0      0.00%     75.43% # attempts to use FU when none available
system.switch_cpus0.iq.fu_full::SimdFloatMisc            0      0.00%     75.43% # attempts to use FU when none available
system.switch_cpus0.iq.fu_full::SimdFloatMult            0      0.00%     75.43% # attempts to use FU when none available
system.switch_cpus0.iq.fu_full::SimdFloatMultAcc            0      0.00%     75.43% # attempts to use FU when none available
system.switch_cpus0.iq.fu_full::SimdFloatSqrt            0      0.00%     75.43% # attempts to use FU when none available
system.switch_cpus0.iq.fu_full::MemRead        144918     11.37%     86.80% # attempts to use FU when none available
system.switch_cpus0.iq.fu_full::MemWrite       168283     13.20%    100.00% # attempts to use FU when none available
system.switch_cpus0.iq.fu_full::IprAccess            0      0.00%    100.00% # attempts to use FU when none available
system.switch_cpus0.iq.fu_full::InstPrefetch            0      0.00%    100.00% # attempts to use FU when none available
system.switch_cpus0.iq.FU_type_0::No_OpClass            0      0.00%      0.00% # Type of FU issued
system.switch_cpus0.iq.FU_type_0::IntAlu    113948015     82.91%     82.91% # Type of FU issued
system.switch_cpus0.iq.FU_type_0::IntMult      2016472      1.47%     84.38% # Type of FU issued
system.switch_cpus0.iq.FU_type_0::IntDiv            0      0.00%     84.38% # Type of FU issued
system.switch_cpus0.iq.FU_type_0::FloatAdd            0      0.00%     84.38% # Type of FU issued
system.switch_cpus0.iq.FU_type_0::FloatCmp            0      0.00%     84.38% # Type of FU issued
system.switch_cpus0.iq.FU_type_0::FloatCvt            0      0.00%     84.38% # Type of FU issued
system.switch_cpus0.iq.FU_type_0::FloatMult            0      0.00%     84.38% # Type of FU issued
system.switch_cpus0.iq.FU_type_0::FloatDiv            0      0.00%     84.38% # Type of FU issued
system.switch_cpus0.iq.FU_type_0::FloatSqrt            0      0.00%     84.38% # Type of FU issued
system.switch_cpus0.iq.FU_type_0::SimdAdd            0      0.00%     84.38% # Type of FU issued
system.switch_cpus0.iq.FU_type_0::SimdAddAcc            0      0.00%     84.38% # Type of FU issued
system.switch_cpus0.iq.FU_type_0::SimdAlu            0      0.00%     84.38% # Type of FU issued
system.switch_cpus0.iq.FU_type_0::SimdCmp            0      0.00%     84.38% # Type of FU issued
system.switch_cpus0.iq.FU_type_0::SimdCvt            0      0.00%     84.38% # Type of FU issued
system.switch_cpus0.iq.FU_type_0::SimdMisc            0      0.00%     84.38% # Type of FU issued
system.switch_cpus0.iq.FU_type_0::SimdMult            0      0.00%     84.38% # Type of FU issued
system.switch_cpus0.iq.FU_type_0::SimdMultAcc            0      0.00%     84.38% # Type of FU issued
system.switch_cpus0.iq.FU_type_0::SimdShift            0      0.00%     84.38% # Type of FU issued
system.switch_cpus0.iq.FU_type_0::SimdShiftAcc            0      0.00%     84.38% # Type of FU issued
system.switch_cpus0.iq.FU_type_0::SimdSqrt            0      0.00%     84.38% # Type of FU issued
system.switch_cpus0.iq.FU_type_0::SimdFloatAdd            0      0.00%     84.38% # Type of FU issued
system.switch_cpus0.iq.FU_type_0::SimdFloatAlu            0      0.00%     84.38% # Type of FU issued
system.switch_cpus0.iq.FU_type_0::SimdFloatCmp            0      0.00%     84.38% # Type of FU issued
system.switch_cpus0.iq.FU_type_0::SimdFloatCvt            0      0.00%     84.38% # Type of FU issued
system.switch_cpus0.iq.FU_type_0::SimdFloatDiv            0      0.00%     84.38% # Type of FU issued
system.switch_cpus0.iq.FU_type_0::SimdFloatMisc        16080      0.01%     84.39% # Type of FU issued
system.switch_cpus0.iq.FU_type_0::SimdFloatMult            0      0.00%     84.39% # Type of FU issued
system.switch_cpus0.iq.FU_type_0::SimdFloatMultAcc            0      0.00%     84.39% # Type of FU issued
system.switch_cpus0.iq.FU_type_0::SimdFloatSqrt            0      0.00%     84.39% # Type of FU issued
system.switch_cpus0.iq.FU_type_0::MemRead     13653057      9.93%     94.32% # Type of FU issued
system.switch_cpus0.iq.FU_type_0::MemWrite      7804244      5.68%    100.00% # Type of FU issued
system.switch_cpus0.iq.FU_type_0::IprAccess            0      0.00%    100.00% # Type of FU issued
system.switch_cpus0.iq.FU_type_0::InstPrefetch            0      0.00%    100.00% # Type of FU issued
system.switch_cpus0.iq.FU_type_0::total     137437868                       # Type of FU issued
system.switch_cpus0.iq.rate                  0.548784                       # Inst issue rate
system.switch_cpus0.iq.fu_busy_cnt            1274608                       # FU busy when requested
system.switch_cpus0.iq.fu_busy_rate          0.009274                       # FU busy rate (busy events/executed inst)
system.switch_cpus0.iq.int_inst_queue_reads    507827181                       # Number of integer instruction queue reads
system.switch_cpus0.iq.int_inst_queue_writes    165008472                       # Number of integer instruction queue writes
system.switch_cpus0.iq.int_inst_queue_wakeup_accesses    133621998                       # Number of integer instruction queue wakeup accesses
system.switch_cpus0.iq.fp_inst_queue_reads            0                       # Number of floating instruction queue reads
system.switch_cpus0.iq.fp_inst_queue_writes            0                       # Number of floating instruction queue writes
system.switch_cpus0.iq.fp_inst_queue_wakeup_accesses            0                       # Number of floating instruction queue wakeup accesses
system.switch_cpus0.iq.int_alu_accesses     138712476                       # Number of integer alu accesses
system.switch_cpus0.iq.fp_alu_accesses              0                       # Number of floating point alu accesses
system.switch_cpus0.iew.lsq.thread0.forwLoads       152950                       # Number of loads that had data forwarded from stores
system.switch_cpus0.iew.lsq.thread0.invAddrLoads            0                       # Number of loads ignored due to an invalid address
system.switch_cpus0.iew.lsq.thread0.squashedLoads      1831972                       # Number of loads squashed
system.switch_cpus0.iew.lsq.thread0.ignoredResponses           60                       # Number of memory responses ignored because the instruction is squashed
system.switch_cpus0.iew.lsq.thread0.memOrderViolation          689                       # Number of memory ordering violations
system.switch_cpus0.iew.lsq.thread0.squashedStores       139805                       # Number of stores squashed
system.switch_cpus0.iew.lsq.thread0.invAddrSwpfs            0                       # Number of software prefetches ignored due to an invalid address
system.switch_cpus0.iew.lsq.thread0.blockedLoads            0                       # Number of blocked loads due to partial load-store forwarding
system.switch_cpus0.iew.lsq.thread0.rescheduledLoads          550                       # Number of loads that were rescheduled
system.switch_cpus0.iew.lsq.thread0.cacheBlocked            0                       # Number of times an access to memory failed due to the cache being blocked
system.switch_cpus0.iew.iewIdleCycles               0                       # Number of cycles IEW is idle
system.switch_cpus0.iew.iewSquashCycles       3787484                       # Number of cycles IEW is squashing
system.switch_cpus0.iew.iewBlockCycles        6587368                       # Number of cycles IEW is blocking
system.switch_cpus0.iew.iewUnblockCycles       286467                       # Number of cycles IEW is unblocking
system.switch_cpus0.iew.iewDispatchedInsts    144778027                       # Number of instructions dispatched to IQ
system.switch_cpus0.iew.iewDispSquashedInsts          331                       # Number of squashed instructions skipped by dispatch
system.switch_cpus0.iew.iewDispLoadInsts     13983572                       # Number of dispatched load instructions
system.switch_cpus0.iew.iewDispStoreInsts      7849371                       # Number of dispatched store instructions
system.switch_cpus0.iew.iewDispNonSpecInsts        17544                       # Number of dispatched non-speculative instructions
system.switch_cpus0.iew.iewIQFullEvents        221765                       # Number of times the IQ has become full, causing a stall
system.switch_cpus0.iew.iewLSQFullEvents        12660                       # Number of times the LSQ has become full, causing a stall
system.switch_cpus0.iew.memOrderViolationEvents          689                       # Number of memory order violations
system.switch_cpus0.iew.predictedTakenIncorrect      1148721                       # Number of branches that were predicted taken incorrectly
system.switch_cpus0.iew.predictedNotTakenIncorrect      1066755                       # Number of branches that were predicted not taken incorrectly
system.switch_cpus0.iew.branchMispredicts      2215476                       # Number of branch mispredicts detected at execute
system.switch_cpus0.iew.iewExecutedInsts    134849805                       # Number of executed instructions
system.switch_cpus0.iew.iewExecLoadInsts     13520316                       # Number of load instructions executed
system.switch_cpus0.iew.iewExecSquashedInsts      2588063                       # Number of squashed instructions skipped in execute
system.switch_cpus0.iew.exec_swp                    0                       # number of swp insts executed
system.switch_cpus0.iew.exec_nop                    0                       # number of nop insts executed
system.switch_cpus0.iew.exec_refs            21323872                       # number of memory reference insts executed
system.switch_cpus0.iew.exec_branches        19246572                       # Number of branches executed
system.switch_cpus0.iew.exec_stores           7803556                       # Number of stores executed
system.switch_cpus0.iew.exec_rate            0.538450                       # Inst execution rate
system.switch_cpus0.iew.wb_sent             133624156                       # cumulative count of insts sent to commit
system.switch_cpus0.iew.wb_count            133621998                       # cumulative count of insts written-back
system.switch_cpus0.iew.wb_producers         79398504                       # num instructions producing a value
system.switch_cpus0.iew.wb_consumers        213702985                       # num instructions consuming a value
system.switch_cpus0.iew.wb_penalized                0                       # number of instrctions required to write to 'other' IQ
system.switch_cpus0.iew.wb_rate              0.533547                       # insts written-back per cycle
system.switch_cpus0.iew.wb_fanout            0.371537                       # average fanout of values written-back
system.switch_cpus0.iew.wb_penalized_rate            0                       # fraction of instructions written-back that wrote to 'other' IQ
system.switch_cpus0.commit.commitCommittedInsts    100000001                       # The number of committed instructions
system.switch_cpus0.commit.commitCommittedOps    122466363                       # The number of committed instructions
system.switch_cpus0.commit.commitSquashedInsts     22321602                       # The number of squashed insts skipped by commit
system.switch_cpus0.commit.commitNonSpecStalls        32160                       # The number of times commit has been forced to stall to communicate backwards
system.switch_cpus0.commit.branchMispredicts      1943148                       # The number of times a branch was mispredicted
system.switch_cpus0.commit.committed_per_cycle::samples    227806544                       # Number of insts commited each cycle
system.switch_cpus0.commit.committed_per_cycle::mean     0.537589                       # Number of insts commited each cycle
system.switch_cpus0.commit.committed_per_cycle::stdev     1.390565                       # Number of insts commited each cycle
system.switch_cpus0.commit.committed_per_cycle::underflows            0      0.00%      0.00% # Number of insts commited each cycle
system.switch_cpus0.commit.committed_per_cycle::0    178016179     78.14%     78.14% # Number of insts commited each cycle
system.switch_cpus0.commit.committed_per_cycle::1     23328909     10.24%     88.38% # Number of insts commited each cycle
system.switch_cpus0.commit.committed_per_cycle::2     10838506      4.76%     93.14% # Number of insts commited each cycle
system.switch_cpus0.commit.committed_per_cycle::3      4822398      2.12%     95.26% # Number of insts commited each cycle
system.switch_cpus0.commit.committed_per_cycle::4      3655321      1.60%     96.86% # Number of insts commited each cycle
system.switch_cpus0.commit.committed_per_cycle::5      1543134      0.68%     97.54% # Number of insts commited each cycle
system.switch_cpus0.commit.committed_per_cycle::6      1532333      0.67%     98.21% # Number of insts commited each cycle
system.switch_cpus0.commit.committed_per_cycle::7      1095816      0.48%     98.69% # Number of insts commited each cycle
system.switch_cpus0.commit.committed_per_cycle::8      2973948      1.31%    100.00% # Number of insts commited each cycle
system.switch_cpus0.commit.committed_per_cycle::overflows            0      0.00%    100.00% # Number of insts commited each cycle
system.switch_cpus0.commit.committed_per_cycle::min_value            0                       # Number of insts commited each cycle
system.switch_cpus0.commit.committed_per_cycle::max_value            8                       # Number of insts commited each cycle
system.switch_cpus0.commit.committed_per_cycle::total    227806544                       # Number of insts commited each cycle
system.switch_cpus0.commit.committedInsts    100000001                       # Number of instructions committed
system.switch_cpus0.commit.committedOps     122466363                       # Number of ops (including micro ops) committed
system.switch_cpus0.commit.swp_count                0                       # Number of s/w prefetches committed
system.switch_cpus0.commit.refs              19861166                       # Number of memory references committed
system.switch_cpus0.commit.loads             12151600                       # Number of loads committed
system.switch_cpus0.commit.membars              16080                       # Number of memory barriers committed
system.switch_cpus0.commit.branches          17572811                       # Number of branches committed
system.switch_cpus0.commit.fp_insts                 0                       # Number of committed floating point instructions.
system.switch_cpus0.commit.int_insts        110207504                       # Number of committed integer instructions.
system.switch_cpus0.commit.function_calls      2420799                       # Number of function calls committed.
system.switch_cpus0.commit.bw_lim_events      2973948                       # number cycles where commit BW limit reached
system.switch_cpus0.commit.bw_limited               0                       # number of insts not committed due to BW limits
system.switch_cpus0.rob.rob_reads           369620561                       # The number of ROB reads
system.switch_cpus0.rob.rob_writes          293363463                       # The number of ROB writes
system.switch_cpus0.timesIdled                2866321                       # Number of times that the entire CPU went into an idle state and unscheduled itself
system.switch_cpus0.idleCycles               18846813                       # Total number of cycles that the CPU has spent unscheduled due to idling
system.switch_cpus0.committedInsts          100000001                       # Number of Instructions Simulated
system.switch_cpus0.committedOps            122466363                       # Number of Ops (including micro ops) Simulated
system.switch_cpus0.committedInsts_total    100000001                       # Number of Instructions Simulated
system.switch_cpus0.cpi                      2.504408                       # CPI: Cycles Per Instruction
system.switch_cpus0.cpi_total                2.504408                       # CPI: Total CPI of All Threads
system.switch_cpus0.ipc                      0.399296                       # IPC: Instructions Per Cycle
system.switch_cpus0.ipc_total                0.399296                       # IPC: Total IPC of All Threads
system.switch_cpus0.int_regfile_reads       609727970                       # number of integer regfile reads
system.switch_cpus0.int_regfile_writes      184120330                       # number of integer regfile writes
system.switch_cpus0.misc_regfile_reads      138179412                       # number of misc regfile reads
system.switch_cpus0.misc_regfile_writes         32160                       # number of misc regfile writes
system.switch_cpus1.dtb.inst_hits                   0                       # ITB inst hits
system.switch_cpus1.dtb.inst_misses                 0                       # ITB inst misses
system.switch_cpus1.dtb.read_hits                   0                       # DTB read hits
system.switch_cpus1.dtb.read_misses                 0                       # DTB read misses
system.switch_cpus1.dtb.write_hits                  0                       # DTB write hits
system.switch_cpus1.dtb.write_misses                0                       # DTB write misses
system.switch_cpus1.dtb.flush_tlb                   0                       # Number of times complete TLB was flushed
system.switch_cpus1.dtb.flush_tlb_mva               0                       # Number of times TLB was flushed by MVA
system.switch_cpus1.dtb.flush_tlb_mva_asid            0                       # Number of times TLB was flushed by MVA & ASID
system.switch_cpus1.dtb.flush_tlb_asid              0                       # Number of times TLB was flushed by ASID
system.switch_cpus1.dtb.flush_entries               0                       # Number of entries that have been flushed from TLB
system.switch_cpus1.dtb.align_faults                0                       # Number of TLB faults due to alignment restrictions
system.switch_cpus1.dtb.prefetch_faults             0                       # Number of TLB faults due to prefetch
system.switch_cpus1.dtb.domain_faults               0                       # Number of TLB faults due to domain restrictions
system.switch_cpus1.dtb.perms_faults                0                       # Number of TLB faults due to permissions restrictions
system.switch_cpus1.dtb.read_accesses               0                       # DTB read accesses
system.switch_cpus1.dtb.write_accesses              0                       # DTB write accesses
system.switch_cpus1.dtb.inst_accesses               0                       # ITB inst accesses
system.switch_cpus1.dtb.hits                        0                       # DTB hits
system.switch_cpus1.dtb.misses                      0                       # DTB misses
system.switch_cpus1.dtb.accesses                    0                       # DTB accesses
system.switch_cpus1.itb.inst_hits                   0                       # ITB inst hits
system.switch_cpus1.itb.inst_misses                 0                       # ITB inst misses
system.switch_cpus1.itb.read_hits                   0                       # DTB read hits
system.switch_cpus1.itb.read_misses                 0                       # DTB read misses
system.switch_cpus1.itb.write_hits                  0                       # DTB write hits
system.switch_cpus1.itb.write_misses                0                       # DTB write misses
system.switch_cpus1.itb.flush_tlb                   0                       # Number of times complete TLB was flushed
system.switch_cpus1.itb.flush_tlb_mva               0                       # Number of times TLB was flushed by MVA
system.switch_cpus1.itb.flush_tlb_mva_asid            0                       # Number of times TLB was flushed by MVA & ASID
system.switch_cpus1.itb.flush_tlb_asid              0                       # Number of times TLB was flushed by ASID
system.switch_cpus1.itb.flush_entries               0                       # Number of entries that have been flushed from TLB
system.switch_cpus1.itb.align_faults                0                       # Number of TLB faults due to alignment restrictions
system.switch_cpus1.itb.prefetch_faults             0                       # Number of TLB faults due to prefetch
system.switch_cpus1.itb.domain_faults               0                       # Number of TLB faults due to domain restrictions
system.switch_cpus1.itb.perms_faults                0                       # Number of TLB faults due to permissions restrictions
system.switch_cpus1.itb.read_accesses               0                       # DTB read accesses
system.switch_cpus1.itb.write_accesses              0                       # DTB write accesses
system.switch_cpus1.itb.inst_accesses               0                       # ITB inst accesses
system.switch_cpus1.itb.hits                        0                       # DTB hits
system.switch_cpus1.itb.misses                      0                       # DTB misses
system.switch_cpus1.itb.accesses                    0                       # DTB accesses
system.cpu1.workload.num_syscalls                   0                       # Number of system calls
system.switch_cpus1.numCycles               250440841                       # number of cpu cycles simulated
system.switch_cpus1.numWorkItemsStarted             0                       # number of work items this cpu started
system.switch_cpus1.numWorkItemsCompleted            0                       # number of work items this cpu completed
system.switch_cpus1.BPredUnit.lookups        18752354                       # Number of BP lookups
system.switch_cpus1.BPredUnit.condPredicted     16645925                       # Number of conditional branches predicted
system.switch_cpus1.BPredUnit.condIncorrect      1617036                       # Number of conditional branches incorrect
system.switch_cpus1.BPredUnit.BTBLookups      9814449                       # Number of BTB lookups
system.switch_cpus1.BPredUnit.BTBHits         9580594                       # Number of BTB hits
system.switch_cpus1.BPredUnit.BTBCorrect            0                       # Number of correct BTB predictions (this stat may not work properly.
system.switch_cpus1.BPredUnit.usedRAS         1194903                       # Number of times the RAS was used to get a target.
system.switch_cpus1.BPredUnit.RASInCorrect        46816                       # Number of incorrect RAS predictions.
system.switch_cpus1.fetch.icacheStallCycles    201940490                       # Number of cycles fetch is stalled on an Icache miss
system.switch_cpus1.fetch.Insts             106149714                       # Number of instructions fetch has processed
system.switch_cpus1.fetch.Branches           18752354                       # Number of branches that fetch encountered
system.switch_cpus1.fetch.predictedBranches     10775497                       # Number of branches that fetch has predicted taken
system.switch_cpus1.fetch.Cycles             21472665                       # Number of cycles fetch has run and was not squashing or blocked
system.switch_cpus1.fetch.SquashCycles        4944023                       # Number of cycles fetch has spent squashing
system.switch_cpus1.fetch.BlockedCycles       2114366                       # Number of cycles fetch has spent blocked
system.switch_cpus1.fetch.MiscStallCycles            1                       # Number of cycles fetch has spent waiting on interrupts, or bad addresses, or out of MSHRs
system.switch_cpus1.fetch.PendingTrapStallCycles            6                       # Number of stall cycles due to pending traps
system.switch_cpus1.fetch.CacheLines         12351729                       # Number of cache lines fetched
system.switch_cpus1.fetch.IcacheSquashes      1611617                       # Number of outstanding Icache misses that were squashed
system.switch_cpus1.fetch.rateDist::samples    228846051                       # Number of instructions fetched each cycle (Total)
system.switch_cpus1.fetch.rateDist::mean     0.522904                       # Number of instructions fetched each cycle (Total)
system.switch_cpus1.fetch.rateDist::stdev     1.773451                       # Number of instructions fetched each cycle (Total)
system.switch_cpus1.fetch.rateDist::underflows            0      0.00%      0.00% # Number of instructions fetched each cycle (Total)
system.switch_cpus1.fetch.rateDist::0       207373386     90.62%     90.62% # Number of instructions fetched each cycle (Total)
system.switch_cpus1.fetch.rateDist::1          977164      0.43%     91.04% # Number of instructions fetched each cycle (Total)
system.switch_cpus1.fetch.rateDist::2         1813250      0.79%     91.84% # Number of instructions fetched each cycle (Total)
system.switch_cpus1.fetch.rateDist::3         1574833      0.69%     92.52% # Number of instructions fetched each cycle (Total)
system.switch_cpus1.fetch.rateDist::4         3173839      1.39%     93.91% # Number of instructions fetched each cycle (Total)
system.switch_cpus1.fetch.rateDist::5         3826767      1.67%     95.58% # Number of instructions fetched each cycle (Total)
system.switch_cpus1.fetch.rateDist::6          921168      0.40%     95.99% # Number of instructions fetched each cycle (Total)
system.switch_cpus1.fetch.rateDist::7          504972      0.22%     96.21% # Number of instructions fetched each cycle (Total)
system.switch_cpus1.fetch.rateDist::8         8680672      3.79%    100.00% # Number of instructions fetched each cycle (Total)
system.switch_cpus1.fetch.rateDist::overflows            0      0.00%    100.00% # Number of instructions fetched each cycle (Total)
system.switch_cpus1.fetch.rateDist::min_value            0                       # Number of instructions fetched each cycle (Total)
system.switch_cpus1.fetch.rateDist::max_value            8                       # Number of instructions fetched each cycle (Total)
system.switch_cpus1.fetch.rateDist::total    228846051                       # Number of instructions fetched each cycle (Total)
system.switch_cpus1.fetch.branchRate         0.074877                       # Number of branch fetches per cycle
system.switch_cpus1.fetch.rate               0.423851                       # Number of inst fetches per cycle
system.switch_cpus1.decode.IdleCycles       200450860                       # Number of cycles decode is idle
system.switch_cpus1.decode.BlockedCycles      3619335                       # Number of cycles decode is blocked
system.switch_cpus1.decode.RunCycles         21439330                       # Number of cycles decode is running
system.switch_cpus1.decode.UnblockCycles        22342                       # Number of cycles decode is unblocking
system.switch_cpus1.decode.SquashCycles       3314183                       # Number of cycles decode is squashing
system.switch_cpus1.decode.BranchResolved      1842301                       # Number of times decode resolved a branch
system.switch_cpus1.decode.BranchMispred         4340                       # Number of times decode detected a branch misprediction
system.switch_cpus1.decode.DecodedInsts     119595851                       # Number of instructions handled by decode
system.switch_cpus1.decode.SquashedInsts         1323                       # Number of squashed instructions handled by decode
system.switch_cpus1.rename.SquashCycles       3314183                       # Number of cycles rename is squashing
system.switch_cpus1.rename.IdleCycles       200692948                       # Number of cycles rename is idle
system.switch_cpus1.rename.BlockCycles        1760225                       # Number of cycles rename is blocking
system.switch_cpus1.rename.serializeStallCycles      1130385                       # count of cycles rename stalled for serializing inst
system.switch_cpus1.rename.RunCycles         21210035                       # Number of cycles rename is running
system.switch_cpus1.rename.UnblockCycles       738267                       # Number of cycles rename is unblocking
system.switch_cpus1.rename.RenamedInsts     119495805                       # Number of instructions processed by rename
system.switch_cpus1.rename.ROBFullEvents            5                       # Number of times rename has blocked due to ROB full
system.switch_cpus1.rename.IQFullEvents         77984                       # Number of times rename has blocked due to IQ full
system.switch_cpus1.rename.LSQFullEvents       454750                       # Number of times rename has blocked due to LSQ full
system.switch_cpus1.rename.RenamedOperands    157860279                       # Number of destination operands rename has renamed
system.switch_cpus1.rename.RenameLookups    540410080                       # Number of register rename lookups that rename has made
system.switch_cpus1.rename.int_rename_lookups    540410080                       # Number of integer rename lookups
system.switch_cpus1.rename.CommittedMaps    130561087                       # Number of HB maps that are committed
system.switch_cpus1.rename.UndoneMaps        27299187                       # Number of HB maps that are undone due to squashing
system.switch_cpus1.rename.serializingInsts        16502                       # count of serializing insts renamed
system.switch_cpus1.rename.tempSerializingInsts         8258                       # count of temporary serializing insts renamed
system.switch_cpus1.rename.skidInsts          2296559                       # count of insts added to the skid buffer
system.switch_cpus1.memDep0.insertedLoads     20733034                       # Number of loads inserted to the mem dependence unit.
system.switch_cpus1.memDep0.insertedStores      3695902                       # Number of stores inserted to the mem dependence unit.
system.switch_cpus1.memDep0.conflictingLoads        65758                       # Number of conflicting loads.
system.switch_cpus1.memDep0.conflictingStores       831407                       # Number of conflicting stores.
system.switch_cpus1.iq.iqInstsAdded         119047193                       # Number of instructions added to the IQ (excludes non-spec)
system.switch_cpus1.iq.iqNonSpecInstsAdded        16502                       # Number of non-speculative instructions added to the IQ
system.switch_cpus1.iq.iqInstsIssued        113070590                       # Number of instructions issued
system.switch_cpus1.iq.iqSquashedInstsIssued        72077                       # Number of squashed instructions issued
system.switch_cpus1.iq.iqSquashedInstsExamined     17933401                       # Number of squashed instructions iterated over during squash; mainly for profiling
system.switch_cpus1.iq.iqSquashedOperandsExamined     37655954                       # Number of squashed operands that are examined and possibly removed from graph
system.switch_cpus1.iq.iqSquashedNonSpecRemoved           14                       # Number of squashed non-spec instructions that were removed
system.switch_cpus1.iq.issued_per_cycle::samples    228846051                       # Number of insts issued each cycle
system.switch_cpus1.iq.issued_per_cycle::mean     0.494090                       # Number of insts issued each cycle
system.switch_cpus1.iq.issued_per_cycle::stdev     1.177206                       # Number of insts issued each cycle
system.switch_cpus1.iq.issued_per_cycle::underflows            0      0.00%      0.00% # Number of insts issued each cycle
system.switch_cpus1.iq.issued_per_cycle::0    180456569     78.86%     78.86% # Number of insts issued each cycle
system.switch_cpus1.iq.issued_per_cycle::1     20299301      8.87%     87.73% # Number of insts issued each cycle
system.switch_cpus1.iq.issued_per_cycle::2     10390121      4.54%     92.27% # Number of insts issued each cycle
system.switch_cpus1.iq.issued_per_cycle::3      5988145      2.62%     94.88% # Number of insts issued each cycle
system.switch_cpus1.iq.issued_per_cycle::4      6669466      2.91%     97.80% # Number of insts issued each cycle
system.switch_cpus1.iq.issued_per_cycle::5      3335228      1.46%     99.25% # Number of insts issued each cycle
system.switch_cpus1.iq.issued_per_cycle::6      1337438      0.58%     99.84% # Number of insts issued each cycle
system.switch_cpus1.iq.issued_per_cycle::7       310284      0.14%     99.97% # Number of insts issued each cycle
system.switch_cpus1.iq.issued_per_cycle::8        59499      0.03%    100.00% # Number of insts issued each cycle
system.switch_cpus1.iq.issued_per_cycle::overflows            0      0.00%    100.00% # Number of insts issued each cycle
system.switch_cpus1.iq.issued_per_cycle::min_value            0                       # Number of insts issued each cycle
system.switch_cpus1.iq.issued_per_cycle::max_value            8                       # Number of insts issued each cycle
system.switch_cpus1.iq.issued_per_cycle::total    228846051                       # Number of insts issued each cycle
system.switch_cpus1.iq.fu_full::No_OpClass            0      0.00%      0.00% # attempts to use FU when none available
system.switch_cpus1.iq.fu_full::IntAlu         209661     48.10%     48.10% # attempts to use FU when none available
system.switch_cpus1.iq.fu_full::IntMult             0      0.00%     48.10% # attempts to use FU when none available
system.switch_cpus1.iq.fu_full::IntDiv              0      0.00%     48.10% # attempts to use FU when none available
system.switch_cpus1.iq.fu_full::FloatAdd            0      0.00%     48.10% # attempts to use FU when none available
system.switch_cpus1.iq.fu_full::FloatCmp            0      0.00%     48.10% # attempts to use FU when none available
system.switch_cpus1.iq.fu_full::FloatCvt            0      0.00%     48.10% # attempts to use FU when none available
system.switch_cpus1.iq.fu_full::FloatMult            0      0.00%     48.10% # attempts to use FU when none available
system.switch_cpus1.iq.fu_full::FloatDiv            0      0.00%     48.10% # attempts to use FU when none available
system.switch_cpus1.iq.fu_full::FloatSqrt            0      0.00%     48.10% # attempts to use FU when none available
system.switch_cpus1.iq.fu_full::SimdAdd             0      0.00%     48.10% # attempts to use FU when none available
system.switch_cpus1.iq.fu_full::SimdAddAcc            0      0.00%     48.10% # attempts to use FU when none available
system.switch_cpus1.iq.fu_full::SimdAlu             0      0.00%     48.10% # attempts to use FU when none available
system.switch_cpus1.iq.fu_full::SimdCmp             0      0.00%     48.10% # attempts to use FU when none available
system.switch_cpus1.iq.fu_full::SimdCvt             0      0.00%     48.10% # attempts to use FU when none available
system.switch_cpus1.iq.fu_full::SimdMisc            0      0.00%     48.10% # attempts to use FU when none available
system.switch_cpus1.iq.fu_full::SimdMult            0      0.00%     48.10% # attempts to use FU when none available
system.switch_cpus1.iq.fu_full::SimdMultAcc            0      0.00%     48.10% # attempts to use FU when none available
system.switch_cpus1.iq.fu_full::SimdShift            0      0.00%     48.10% # attempts to use FU when none available
system.switch_cpus1.iq.fu_full::SimdShiftAcc            0      0.00%     48.10% # attempts to use FU when none available
system.switch_cpus1.iq.fu_full::SimdSqrt            0      0.00%     48.10% # attempts to use FU when none available
system.switch_cpus1.iq.fu_full::SimdFloatAdd            0      0.00%     48.10% # attempts to use FU when none available
system.switch_cpus1.iq.fu_full::SimdFloatAlu            0      0.00%     48.10% # attempts to use FU when none available
system.switch_cpus1.iq.fu_full::SimdFloatCmp            0      0.00%     48.10% # attempts to use FU when none available
system.switch_cpus1.iq.fu_full::SimdFloatCvt            0      0.00%     48.10% # attempts to use FU when none available
system.switch_cpus1.iq.fu_full::SimdFloatDiv            0      0.00%     48.10% # attempts to use FU when none available
system.switch_cpus1.iq.fu_full::SimdFloatMisc            0      0.00%     48.10% # attempts to use FU when none available
system.switch_cpus1.iq.fu_full::SimdFloatMult            0      0.00%     48.10% # attempts to use FU when none available
system.switch_cpus1.iq.fu_full::SimdFloatMultAcc            0      0.00%     48.10% # attempts to use FU when none available
system.switch_cpus1.iq.fu_full::SimdFloatSqrt            0      0.00%     48.10% # attempts to use FU when none available
system.switch_cpus1.iq.fu_full::MemRead        159341     36.55%     84.65% # attempts to use FU when none available
system.switch_cpus1.iq.fu_full::MemWrite        66925     15.35%    100.00% # attempts to use FU when none available
system.switch_cpus1.iq.fu_full::IprAccess            0      0.00%    100.00% # attempts to use FU when none available
system.switch_cpus1.iq.fu_full::InstPrefetch            0      0.00%    100.00% # attempts to use FU when none available
system.switch_cpus1.iq.FU_type_0::No_OpClass            0      0.00%      0.00% # Type of FU issued
system.switch_cpus1.iq.FU_type_0::IntAlu     88815881     78.55%     78.55% # Type of FU issued
system.switch_cpus1.iq.FU_type_0::IntMult       898823      0.79%     79.34% # Type of FU issued
system.switch_cpus1.iq.FU_type_0::IntDiv            0      0.00%     79.34% # Type of FU issued
system.switch_cpus1.iq.FU_type_0::FloatAdd            0      0.00%     79.34% # Type of FU issued
system.switch_cpus1.iq.FU_type_0::FloatCmp            0      0.00%     79.34% # Type of FU issued
system.switch_cpus1.iq.FU_type_0::FloatCvt            0      0.00%     79.34% # Type of FU issued
system.switch_cpus1.iq.FU_type_0::FloatMult            0      0.00%     79.34% # Type of FU issued
system.switch_cpus1.iq.FU_type_0::FloatDiv            0      0.00%     79.34% # Type of FU issued
system.switch_cpus1.iq.FU_type_0::FloatSqrt            0      0.00%     79.34% # Type of FU issued
system.switch_cpus1.iq.FU_type_0::SimdAdd            0      0.00%     79.34% # Type of FU issued
system.switch_cpus1.iq.FU_type_0::SimdAddAcc            0      0.00%     79.34% # Type of FU issued
system.switch_cpus1.iq.FU_type_0::SimdAlu            0      0.00%     79.34% # Type of FU issued
system.switch_cpus1.iq.FU_type_0::SimdCmp            0      0.00%     79.34% # Type of FU issued
system.switch_cpus1.iq.FU_type_0::SimdCvt            0      0.00%     79.34% # Type of FU issued
system.switch_cpus1.iq.FU_type_0::SimdMisc            0      0.00%     79.34% # Type of FU issued
system.switch_cpus1.iq.FU_type_0::SimdMult            0      0.00%     79.34% # Type of FU issued
system.switch_cpus1.iq.FU_type_0::SimdMultAcc            0      0.00%     79.34% # Type of FU issued
system.switch_cpus1.iq.FU_type_0::SimdShift            0      0.00%     79.34% # Type of FU issued
system.switch_cpus1.iq.FU_type_0::SimdShiftAcc            0      0.00%     79.34% # Type of FU issued
system.switch_cpus1.iq.FU_type_0::SimdSqrt            0      0.00%     79.34% # Type of FU issued
system.switch_cpus1.iq.FU_type_0::SimdFloatAdd            0      0.00%     79.34% # Type of FU issued
system.switch_cpus1.iq.FU_type_0::SimdFloatAlu            0      0.00%     79.34% # Type of FU issued
system.switch_cpus1.iq.FU_type_0::SimdFloatCmp            0      0.00%     79.34% # Type of FU issued
system.switch_cpus1.iq.FU_type_0::SimdFloatCvt            0      0.00%     79.34% # Type of FU issued
system.switch_cpus1.iq.FU_type_0::SimdFloatDiv            0      0.00%     79.34% # Type of FU issued
system.switch_cpus1.iq.FU_type_0::SimdFloatMisc         8244      0.01%     79.35% # Type of FU issued
system.switch_cpus1.iq.FU_type_0::SimdFloatMult            0      0.00%     79.35% # Type of FU issued
system.switch_cpus1.iq.FU_type_0::SimdFloatMultAcc            0      0.00%     79.35% # Type of FU issued
system.switch_cpus1.iq.FU_type_0::SimdFloatSqrt            0      0.00%     79.35% # Type of FU issued
system.switch_cpus1.iq.FU_type_0::MemRead     19670130     17.40%     96.75% # Type of FU issued
system.switch_cpus1.iq.FU_type_0::MemWrite      3677512      3.25%    100.00% # Type of FU issued
system.switch_cpus1.iq.FU_type_0::IprAccess            0      0.00%    100.00% # Type of FU issued
system.switch_cpus1.iq.FU_type_0::InstPrefetch            0      0.00%    100.00% # Type of FU issued
system.switch_cpus1.iq.FU_type_0::total     113070590                       # Type of FU issued
system.switch_cpus1.iq.rate                  0.451486                       # Inst issue rate
system.switch_cpus1.iq.fu_busy_cnt             435927                       # FU busy when requested
system.switch_cpus1.iq.fu_busy_rate          0.003855                       # FU busy rate (busy events/executed inst)
system.switch_cpus1.iq.int_inst_queue_reads    455495235                       # Number of integer instruction queue reads
system.switch_cpus1.iq.int_inst_queue_writes    136997362                       # Number of integer instruction queue writes
system.switch_cpus1.iq.int_inst_queue_wakeup_accesses    110464016                       # Number of integer instruction queue wakeup accesses
system.switch_cpus1.iq.fp_inst_queue_reads            0                       # Number of floating instruction queue reads
system.switch_cpus1.iq.fp_inst_queue_writes            0                       # Number of floating instruction queue writes
system.switch_cpus1.iq.fp_inst_queue_wakeup_accesses            0                       # Number of floating instruction queue wakeup accesses
system.switch_cpus1.iq.int_alu_accesses     113506517                       # Number of integer alu accesses
system.switch_cpus1.iq.fp_alu_accesses              0                       # Number of floating point alu accesses
system.switch_cpus1.iew.lsq.thread0.forwLoads       199753                       # Number of loads that had data forwarded from stores
system.switch_cpus1.iew.lsq.thread0.invAddrLoads            0                       # Number of loads ignored due to an invalid address
system.switch_cpus1.iew.lsq.thread0.squashedLoads      3434362                       # Number of loads squashed
system.switch_cpus1.iew.lsq.thread0.ignoredResponses          205                       # Number of memory responses ignored because the instruction is squashed
system.switch_cpus1.iew.lsq.thread0.memOrderViolation          266                       # Number of memory ordering violations
system.switch_cpus1.iew.lsq.thread0.squashedStores        98214                       # Number of stores squashed
system.switch_cpus1.iew.lsq.thread0.invAddrSwpfs            0                       # Number of software prefetches ignored due to an invalid address
system.switch_cpus1.iew.lsq.thread0.blockedLoads            0                       # Number of blocked loads due to partial load-store forwarding
system.switch_cpus1.iew.lsq.thread0.rescheduledLoads            0                       # Number of loads that were rescheduled
system.switch_cpus1.iew.lsq.thread0.cacheBlocked            0                       # Number of times an access to memory failed due to the cache being blocked
system.switch_cpus1.iew.iewIdleCycles               0                       # Number of cycles IEW is idle
system.switch_cpus1.iew.iewSquashCycles       3314183                       # Number of cycles IEW is squashing
system.switch_cpus1.iew.iewBlockCycles        1235087                       # Number of cycles IEW is blocking
system.switch_cpus1.iew.iewUnblockCycles        57875                       # Number of cycles IEW is unblocking
system.switch_cpus1.iew.iewDispatchedInsts    119063696                       # Number of instructions dispatched to IQ
system.switch_cpus1.iew.iewDispSquashedInsts         4966                       # Number of squashed instructions skipped by dispatch
system.switch_cpus1.iew.iewDispLoadInsts     20733034                       # Number of dispatched load instructions
system.switch_cpus1.iew.iewDispStoreInsts      3695902                       # Number of dispatched store instructions
system.switch_cpus1.iew.iewDispNonSpecInsts         8258                       # Number of dispatched non-speculative instructions
system.switch_cpus1.iew.iewIQFullEvents         33126                       # Number of times the IQ has become full, causing a stall
system.switch_cpus1.iew.iewLSQFullEvents          495                       # Number of times the LSQ has become full, causing a stall
system.switch_cpus1.iew.memOrderViolationEvents          266                       # Number of memory order violations
system.switch_cpus1.iew.predictedTakenIncorrect       728274                       # Number of branches that were predicted taken incorrectly
system.switch_cpus1.iew.predictedNotTakenIncorrect       974622                       # Number of branches that were predicted not taken incorrectly
system.switch_cpus1.iew.branchMispredicts      1702896                       # Number of branch mispredicts detected at execute
system.switch_cpus1.iew.iewExecutedInsts    112071261                       # Number of executed instructions
system.switch_cpus1.iew.iewExecLoadInsts     19424962                       # Number of load instructions executed
system.switch_cpus1.iew.iewExecSquashedInsts       999329                       # Number of squashed instructions skipped in execute
system.switch_cpus1.iew.exec_swp                    0                       # number of swp insts executed
system.switch_cpus1.iew.exec_nop                    1                       # number of nop insts executed
system.switch_cpus1.iew.exec_refs            23102435                       # number of memory reference insts executed
system.switch_cpus1.iew.exec_branches        17310094                       # Number of branches executed
system.switch_cpus1.iew.exec_stores           3677473                       # Number of stores executed
system.switch_cpus1.iew.exec_rate            0.447496                       # Inst execution rate
system.switch_cpus1.iew.wb_sent             110493278                       # cumulative count of insts sent to commit
system.switch_cpus1.iew.wb_count            110464016                       # cumulative count of insts written-back
system.switch_cpus1.iew.wb_producers         63193095                       # num instructions producing a value
system.switch_cpus1.iew.wb_consumers        146105591                       # num instructions consuming a value
system.switch_cpus1.iew.wb_penalized                0                       # number of instrctions required to write to 'other' IQ
system.switch_cpus1.iew.wb_rate              0.441078                       # insts written-back per cycle
system.switch_cpus1.iew.wb_fanout            0.432517                       # average fanout of values written-back
system.switch_cpus1.iew.wb_penalized_rate            0                       # fraction of instructions written-back that wrote to 'other' IQ
system.switch_cpus1.commit.commitCommittedInsts     88874375                       # The number of committed instructions
system.switch_cpus1.commit.commitCommittedOps    100185453                       # The number of committed instructions
system.switch_cpus1.commit.commitSquashedInsts     18880747                       # The number of squashed insts skipped by commit
system.switch_cpus1.commit.commitNonSpecStalls        16488                       # The number of times commit has been forced to stall to communicate backwards
system.switch_cpus1.commit.branchMispredicts      1620957                       # The number of times a branch was mispredicted
system.switch_cpus1.commit.committed_per_cycle::samples    225531868                       # Number of insts commited each cycle
system.switch_cpus1.commit.committed_per_cycle::mean     0.444219                       # Number of insts commited each cycle
system.switch_cpus1.commit.committed_per_cycle::stdev     1.294183                       # Number of insts commited each cycle
system.switch_cpus1.commit.committed_per_cycle::underflows            0      0.00%      0.00% # Number of insts commited each cycle
system.switch_cpus1.commit.committed_per_cycle::0    187967629     83.34%     83.34% # Number of insts commited each cycle
system.switch_cpus1.commit.committed_per_cycle::1     14255619      6.32%     89.67% # Number of insts commited each cycle
system.switch_cpus1.commit.committed_per_cycle::2     11108679      4.93%     94.59% # Number of insts commited each cycle
system.switch_cpus1.commit.committed_per_cycle::3      2199130      0.98%     95.57% # Number of insts commited each cycle
system.switch_cpus1.commit.committed_per_cycle::4      2781942      1.23%     96.80% # Number of insts commited each cycle
system.switch_cpus1.commit.committed_per_cycle::5       942989      0.42%     97.22% # Number of insts commited each cycle
system.switch_cpus1.commit.committed_per_cycle::6      4022450      1.78%     99.00% # Number of insts commited each cycle
system.switch_cpus1.commit.committed_per_cycle::7       889767      0.39%     99.40% # Number of insts commited each cycle
system.switch_cpus1.commit.committed_per_cycle::8      1363663      0.60%    100.00% # Number of insts commited each cycle
system.switch_cpus1.commit.committed_per_cycle::overflows            0      0.00%    100.00% # Number of insts commited each cycle
system.switch_cpus1.commit.committed_per_cycle::min_value            0                       # Number of insts commited each cycle
system.switch_cpus1.commit.committed_per_cycle::max_value            8                       # Number of insts commited each cycle
system.switch_cpus1.commit.committed_per_cycle::total    225531868                       # Number of insts commited each cycle
system.switch_cpus1.commit.committedInsts     88874375                       # Number of instructions committed
[...]
system.cpu2.icache.ReadReq_miss_latency::total      3491484                       # number of ReadReq miss cycles
system.cpu2.icache.demand_miss_latency::switch_cpus2.inst      3491484                       # number of demand (read+write) miss cycles
system.cpu2.icache.demand_miss_latency::total      3491484                       # number of demand (read+write) miss cycles
system.cpu2.icache.overall_miss_latency::switch_cpus2.inst      3491484                       # number of overall miss cycles
system.cpu2.icache.overall_miss_latency::total      3491484                       # number of overall miss cycles
system.cpu2.icache.ReadReq_accesses::switch_cpus2.inst     12118335                       # number of ReadReq accesses(hits+misses)
system.cpu2.icache.ReadReq_accesses::total     12118335                       # number of ReadReq accesses(hits+misses)
system.cpu2.icache.demand_accesses::switch_cpus2.inst     12118335                       # number of demand (read+write) accesses
system.cpu2.icache.demand_accesses::total     12118335                       # number of demand (read+write) accesses
system.cpu2.icache.overall_accesses::switch_cpus2.inst     12118335                       # number of overall (read+write) accesses
system.cpu2.icache.overall_accesses::total     12118335                       # number of overall (read+write) accesses
system.cpu2.icache.ReadReq_miss_rate::switch_cpus2.inst     0.000001                       # miss rate for ReadReq accesses
system.cpu2.icache.ReadReq_miss_rate::total     0.000001                       # miss rate for ReadReq accesses
system.cpu2.icache.demand_miss_rate::switch_cpus2.inst     0.000001                       # miss rate for demand accesses
system.cpu2.icache.demand_miss_rate::total     0.000001                       # miss rate for demand accesses
system.cpu2.icache.overall_miss_rate::switch_cpus2.inst     0.000001                       # miss rate for overall accesses
system.cpu2.icache.overall_miss_rate::total     0.000001                       # miss rate for overall accesses
system.cpu2.icache.ReadReq_avg_miss_latency::switch_cpus2.inst 232765.600000                       # average ReadReq miss latency
system.cpu2.icache.ReadReq_avg_miss_latency::total 232765.600000                       # average ReadReq miss latency
system.cpu2.icache.demand_avg_miss_latency::switch_cpus2.inst 232765.600000                       # average overall miss latency
system.cpu2.icache.demand_avg_miss_latency::total 232765.600000                       # average overall miss latency
system.cpu2.icache.overall_avg_miss_latency::switch_cpus2.inst 232765.600000                       # average overall miss latency
system.cpu2.icache.overall_avg_miss_latency::total 232765.600000                       # average overall miss latency
system.cpu2.icache.blocked_cycles::no_mshrs            0                       # number of cycles access was blocked
system.cpu2.icache.blocked_cycles::no_targets            0                       # number of cycles access was blocked
system.cpu2.icache.blocked::no_mshrs                0                       # number of cycles access was blocked
system.cpu2.icache.blocked::no_targets              0                       # number of cycles access was blocked
system.cpu2.icache.avg_blocked_cycles::no_mshrs          nan                       # average number of cycles each access was blocked
system.cpu2.icache.avg_blocked_cycles::no_targets          nan                       # average number of cycles each access was blocked
system.cpu2.icache.fast_writes                      0                       # number of fast writes performed
system.cpu2.icache.cache_copies                     0                       # number of cache copies performed
system.cpu2.icache.ReadReq_mshr_hits::switch_cpus2.inst            1                       # number of ReadReq MSHR hits
system.cpu2.icache.ReadReq_mshr_hits::total            1                       # number of ReadReq MSHR hits
system.cpu2.icache.demand_mshr_hits::switch_cpus2.inst            1                       # number of demand (read+write) MSHR hits
system.cpu2.icache.demand_mshr_hits::total            1                       # number of demand (read+write) MSHR hits
system.cpu2.icache.overall_mshr_hits::switch_cpus2.inst            1                       # number of overall MSHR hits
system.cpu2.icache.overall_mshr_hits::total            1                       # number of overall MSHR hits
system.cpu2.icache.ReadReq_mshr_misses::switch_cpus2.inst           14                       # number of ReadReq MSHR misses
system.cpu2.icache.ReadReq_mshr_misses::total           14                       # number of ReadReq MSHR misses
system.cpu2.icache.demand_mshr_misses::switch_cpus2.inst           14                       # number of demand (read+write) MSHR misses
system.cpu2.icache.demand_mshr_misses::total           14                       # number of demand (read+write) MSHR misses
system.cpu2.icache.overall_mshr_misses::switch_cpus2.inst           14                       # number of overall MSHR misses
system.cpu2.icache.overall_mshr_misses::total           14                       # number of overall MSHR misses
system.cpu2.icache.ReadReq_mshr_miss_latency::switch_cpus2.inst      3156136                       # number of ReadReq MSHR miss cycles
system.cpu2.icache.ReadReq_mshr_miss_latency::total      3156136                       # number of ReadReq MSHR miss cycles
system.cpu2.icache.demand_mshr_miss_latency::switch_cpus2.inst      3156136                       # number of demand (read+write) MSHR miss cycles
system.cpu2.icache.demand_mshr_miss_latency::total      3156136                       # number of demand (read+write) MSHR miss cycles
system.cpu2.icache.overall_mshr_miss_latency::switch_cpus2.inst      3156136                       # number of overall MSHR miss cycles
system.cpu2.icache.overall_mshr_miss_latency::total      3156136                       # number of overall MSHR miss cycles
system.cpu2.icache.ReadReq_mshr_miss_rate::switch_cpus2.inst     0.000001                       # mshr miss rate for ReadReq accesses
system.cpu2.icache.ReadReq_mshr_miss_rate::total     0.000001                       # mshr miss rate for ReadReq accesses
system.cpu2.icache.demand_mshr_miss_rate::switch_cpus2.inst     0.000001                       # mshr miss rate for demand accesses
system.cpu2.icache.demand_mshr_miss_rate::total     0.000001                       # mshr miss rate for demand accesses
system.cpu2.icache.overall_mshr_miss_rate::switch_cpus2.inst     0.000001                       # mshr miss rate for overall accesses
system.cpu2.icache.overall_mshr_miss_rate::total     0.000001                       # mshr miss rate for overall accesses
system.cpu2.icache.ReadReq_avg_mshr_miss_latency::switch_cpus2.inst 225438.285714                       # average ReadReq mshr miss latency
system.cpu2.icache.ReadReq_avg_mshr_miss_latency::total 225438.285714                       # average ReadReq mshr miss latency
system.cpu2.icache.demand_avg_mshr_miss_latency::switch_cpus2.inst 225438.285714                       # average overall mshr miss latency
system.cpu2.icache.demand_avg_mshr_miss_latency::total 225438.285714                       # average overall mshr miss latency
system.cpu2.icache.overall_avg_mshr_miss_latency::switch_cpus2.inst 225438.285714                       # average overall mshr miss latency
system.cpu2.icache.overall_avg_mshr_miss_latency::total 225438.285714                       # average overall mshr miss latency
system.cpu2.icache.no_allocate_misses               0                       # Number of misses that were no-allocate
system.cpu2.dcache.replacements                 41050                       # number of replacements
system.cpu2.dcache.tagsinuse                      256                       # Cycle average of tags in use
system.cpu2.dcache.total_refs               169406063                       # Total number of references to valid blocks.
system.cpu2.dcache.sampled_refs                 41306                       # Sample count of references to valid blocks.
system.cpu2.dcache.avg_refs               4101.245896                       # Average number of references to valid blocks.
system.cpu2.dcache.warmup_cycle                     0                       # Cycle when the warmup percentage was hit.
system.cpu2.dcache.occ_blocks::switch_cpus2.data   233.017276                       # Average occupied blocks per requestor
system.cpu2.dcache.occ_blocks::cpu2.data    22.982724                       # Average occupied blocks per requestor
system.cpu2.dcache.occ_percent::switch_cpus2.data     0.910224                       # Average percentage of cache occupancy
system.cpu2.dcache.occ_percent::cpu2.data     0.089776                       # Average percentage of cache occupancy
system.cpu2.dcache.occ_percent::total               1                       # Average percentage of cache occupancy
system.cpu2.dcache.ReadReq_hits::switch_cpus2.data      9755450                       # number of ReadReq hits
system.cpu2.dcache.ReadReq_hits::total        9755450                       # number of ReadReq hits
system.cpu2.dcache.WriteReq_hits::switch_cpus2.data      7427046                       # number of WriteReq hits
system.cpu2.dcache.WriteReq_hits::total       7427046                       # number of WriteReq hits
system.cpu2.dcache.LoadLockedReq_hits::switch_cpus2.data        17789                       # number of LoadLockedReq hits
system.cpu2.dcache.LoadLockedReq_hits::total        17789                       # number of LoadLockedReq hits
system.cpu2.dcache.StoreCondReq_hits::switch_cpus2.data        17788                       # number of StoreCondReq hits
system.cpu2.dcache.StoreCondReq_hits::total        17788                       # number of StoreCondReq hits
system.cpu2.dcache.demand_hits::switch_cpus2.data     17182496                       # number of demand (read+write) hits
system.cpu2.dcache.demand_hits::total        17182496                       # number of demand (read+write) hits
system.cpu2.dcache.overall_hits::switch_cpus2.data     17182496                       # number of overall hits
system.cpu2.dcache.overall_hits::total       17182496                       # number of overall hits
system.cpu2.dcache.ReadReq_misses::switch_cpus2.data       123511                       # number of ReadReq misses
system.cpu2.dcache.ReadReq_misses::total       123511                       # number of ReadReq misses
system.cpu2.dcache.demand_misses::switch_cpus2.data       123511                       # number of demand (read+write) misses
system.cpu2.dcache.demand_misses::total        123511                       # number of demand (read+write) misses
system.cpu2.dcache.overall_misses::switch_cpus2.data       123511                       # number of overall misses
system.cpu2.dcache.overall_misses::total       123511                       # number of overall misses
system.cpu2.dcache.ReadReq_miss_latency::switch_cpus2.data  13361917051                       # number of ReadReq miss cycles
system.cpu2.dcache.ReadReq_miss_latency::total  13361917051                       # number of ReadReq miss cycles
system.cpu2.dcache.demand_miss_latency::switch_cpus2.data  13361917051                       # number of demand (read+write) miss cycles
system.cpu2.dcache.demand_miss_latency::total  13361917051                       # number of demand (read+write) miss cycles
system.cpu2.dcache.overall_miss_latency::switch_cpus2.data  13361917051                       # number of overall miss cycles
system.cpu2.dcache.overall_miss_latency::total  13361917051                       # number of overall miss cycles
system.cpu2.dcache.ReadReq_accesses::switch_cpus2.data      9878961                       # number of ReadReq accesses(hits+misses)
system.cpu2.dcache.ReadReq_accesses::total      9878961                       # number of ReadReq accesses(hits+misses)
system.cpu2.dcache.WriteReq_accesses::switch_cpus2.data      7427046                       # number of WriteReq accesses(hits+misses)
system.cpu2.dcache.WriteReq_accesses::total      7427046                       # number of WriteReq accesses(hits+misses)
system.cpu2.dcache.LoadLockedReq_accesses::switch_cpus2.data        17789                       # number of LoadLockedReq accesses(hits+misses)
system.cpu2.dcache.LoadLockedReq_accesses::total        17789                       # number of LoadLockedReq accesses(hits+misses)
system.cpu2.dcache.StoreCondReq_accesses::switch_cpus2.data        17788                       # number of StoreCondReq accesses(hits+misses)
system.cpu2.dcache.StoreCondReq_accesses::total        17788                       # number of StoreCondReq accesses(hits+misses)
system.cpu2.dcache.demand_accesses::switch_cpus2.data     17306007                       # number of demand (read+write) accesses
system.cpu2.dcache.demand_accesses::total     17306007                       # number of demand (read+write) accesses
system.cpu2.dcache.overall_accesses::switch_cpus2.data     17306007                       # number of overall (read+write) accesses
system.cpu2.dcache.overall_accesses::total     17306007                       # number of overall (read+write) accesses
system.cpu2.dcache.ReadReq_miss_rate::switch_cpus2.data     0.012502                       # miss rate for ReadReq accesses
system.cpu2.dcache.ReadReq_miss_rate::total     0.012502                       # miss rate for ReadReq accesses
system.cpu2.dcache.demand_miss_rate::switch_cpus2.data     0.007137                       # miss rate for demand accesses
system.cpu2.dcache.demand_miss_rate::total     0.007137                       # miss rate for demand accesses
system.cpu2.dcache.overall_miss_rate::switch_cpus2.data     0.007137                       # miss rate for overall accesses
system.cpu2.dcache.overall_miss_rate::total     0.007137                       # miss rate for overall accesses
system.cpu2.dcache.ReadReq_avg_miss_latency::switch_cpus2.data 108184.024508                       # average ReadReq miss latency
system.cpu2.dcache.ReadReq_avg_miss_latency::total 108184.024508                       # average ReadReq miss latency
system.cpu2.dcache.demand_avg_miss_latency::switch_cpus2.data 108184.024508                       # average overall miss latency
system.cpu2.dcache.demand_avg_miss_latency::total 108184.024508                       # average overall miss latency
system.cpu2.dcache.overall_avg_miss_latency::switch_cpus2.data 108184.024508                       # average overall miss latency
system.cpu2.dcache.overall_avg_miss_latency::total 108184.024508                       # average overall miss latency
system.cpu2.dcache.blocked_cycles::no_mshrs            0                       # number of cycles access was blocked
system.cpu2.dcache.blocked_cycles::no_targets            0                       # number of cycles access was blocked
system.cpu2.dcache.blocked::no_mshrs                0                       # number of cycles access was blocked
system.cpu2.dcache.blocked::no_targets              0                       # number of cycles access was blocked
system.cpu2.dcache.avg_blocked_cycles::no_mshrs          nan                       # average number of cycles each access was blocked
system.cpu2.dcache.avg_blocked_cycles::no_targets          nan                       # average number of cycles each access was blocked
system.cpu2.dcache.fast_writes                      0                       # number of fast writes performed
system.cpu2.dcache.cache_copies                     0                       # number of cache copies performed
system.cpu2.dcache.writebacks::writebacks        11053                       # number of writebacks
system.cpu2.dcache.writebacks::total            11053                       # number of writebacks
system.cpu2.dcache.ReadReq_mshr_hits::switch_cpus2.data        82461                       # number of ReadReq MSHR hits
system.cpu2.dcache.ReadReq_mshr_hits::total        82461                       # number of ReadReq MSHR hits
system.cpu2.dcache.demand_mshr_hits::switch_cpus2.data        82461                       # number of demand (read+write) MSHR hits
system.cpu2.dcache.demand_mshr_hits::total        82461                       # number of demand (read+write) MSHR hits
system.cpu2.dcache.overall_mshr_hits::switch_cpus2.data        82461                       # number of overall MSHR hits
system.cpu2.dcache.overall_mshr_hits::total        82461                       # number of overall MSHR hits
system.cpu2.dcache.ReadReq_mshr_misses::switch_cpus2.data        41050                       # number of ReadReq MSHR misses
system.cpu2.dcache.ReadReq_mshr_misses::total        41050                       # number of ReadReq MSHR misses
system.cpu2.dcache.demand_mshr_misses::switch_cpus2.data        41050                       # number of demand (read+write) MSHR misses
system.cpu2.dcache.demand_mshr_misses::total        41050                       # number of demand (read+write) MSHR misses
system.cpu2.dcache.overall_mshr_misses::switch_cpus2.data        41050                       # number of overall MSHR misses
system.cpu2.dcache.overall_mshr_misses::total        41050                       # number of overall MSHR misses
system.cpu2.dcache.ReadReq_mshr_miss_latency::switch_cpus2.data   3419252607                       # number of ReadReq MSHR miss cycles
system.cpu2.dcache.ReadReq_mshr_miss_latency::total   3419252607                       # number of ReadReq MSHR miss cycles
system.cpu2.dcache.demand_mshr_miss_latency::switch_cpus2.data   3419252607                       # number of demand (read+write) MSHR miss cycles
system.cpu2.dcache.demand_mshr_miss_latency::total   3419252607                       # number of demand (read+write) MSHR miss cycles
system.cpu2.dcache.overall_mshr_miss_latency::switch_cpus2.data   3419252607                       # number of overall MSHR miss cycles
system.cpu2.dcache.overall_mshr_miss_latency::total   3419252607                       # number of overall MSHR miss cycles
system.cpu2.dcache.ReadReq_mshr_miss_rate::switch_cpus2.data     0.004155                       # mshr miss rate for ReadReq accesses
system.cpu2.dcache.ReadReq_mshr_miss_rate::total     0.004155                       # mshr miss rate for ReadReq accesses
system.cpu2.dcache.demand_mshr_miss_rate::switch_cpus2.data     0.002372                       # mshr miss rate for demand accesses
system.cpu2.dcache.demand_mshr_miss_rate::total     0.002372                       # mshr miss rate for demand accesses
system.cpu2.dcache.overall_mshr_miss_rate::switch_cpus2.data     0.002372                       # mshr miss rate for overall accesses
system.cpu2.dcache.overall_mshr_miss_rate::total     0.002372                       # mshr miss rate for overall accesses
system.cpu2.dcache.ReadReq_avg_mshr_miss_latency::switch_cpus2.data 83294.825993                       # average ReadReq mshr miss latency
system.cpu2.dcache.ReadReq_avg_mshr_miss_latency::total 83294.825993                       # average ReadReq mshr miss latency
system.cpu2.dcache.demand_avg_mshr_miss_latency::switch_cpus2.data 83294.825993                       # average overall mshr miss latency
system.cpu2.dcache.demand_avg_mshr_miss_latency::total 83294.825993                       # average overall mshr miss latency
system.cpu2.dcache.overall_avg_mshr_miss_latency::switch_cpus2.data 83294.825993                       # average overall mshr miss latency
system.cpu2.dcache.overall_avg_mshr_miss_latency::total 83294.825993                       # average overall mshr miss latency
system.cpu2.dcache.no_allocate_misses               0                       # Number of misses that were no-allocate

---------- End Simulation Statistics   ----------
