
---------- Begin Simulation Statistics ----------
sim_seconds                                  0.035305                       # Number of seconds simulated
sim_ticks                                 35304536886                       # Number of ticks simulated
final_tick                               563352997557                       # Number of ticks from beginning of simulation (restored from checkpoints and never reset)
sim_freq                                 1000000000000                       # Frequency of simulated ticks
host_inst_rate                                 236932                       # Simulator instruction rate (inst/s)
host_op_rate                                   298938                       # Simulator op (including micro ops) rate (op/s)
host_tick_rate                                2532767                       # Simulator tick rate (ticks/s)
host_mem_usage                               16907684                       # Number of bytes of host memory used
host_seconds                                 13939.12                       # Real time elapsed on the host
sim_insts                                  3302629694                       # Number of instructions simulated
sim_ops                                    4166930570                       # Number of ops (including micro ops) simulated
system.physmem.bytes_read::switch_cpus0.inst         1792                       # Number of bytes read from this memory
system.physmem.bytes_read::switch_cpus0.data       578816                       # Number of bytes read from this memory
system.physmem.bytes_read::switch_cpus1.inst         1664                       # Number of bytes read from this memory
system.physmem.bytes_read::switch_cpus1.data      1110656                       # Number of bytes read from this memory
system.physmem.bytes_read::switch_cpus2.inst         2048                       # Number of bytes read from this memory
system.physmem.bytes_read::switch_cpus2.data       460800                       # Number of bytes read from this memory
system.physmem.bytes_read::total              2155776                       # Number of bytes read from this memory
system.physmem.bytes_inst_read::switch_cpus0.inst         1792                       # Number of instructions bytes read from this memory
system.physmem.bytes_inst_read::switch_cpus1.inst         1664                       # Number of instructions bytes read from this memory
system.physmem.bytes_inst_read::switch_cpus2.inst         2048                       # Number of instructions bytes read from this memory
system.physmem.bytes_inst_read::total            5504                       # Number of instructions bytes read from this memory
system.physmem.bytes_written::writebacks      1464960                       # Number of bytes written to this memory
system.physmem.bytes_written::total           1464960                       # Number of bytes written to this memory
system.physmem.num_reads::switch_cpus0.inst           14                       # Number of read requests responded to by this memory
system.physmem.num_reads::switch_cpus0.data         4522                       # Number of read requests responded to by this memory
system.physmem.num_reads::switch_cpus1.inst           13                       # Number of read requests responded to by this memory
system.physmem.num_reads::switch_cpus1.data         8677                       # Number of read requests responded to by this memory
system.physmem.num_reads::switch_cpus2.inst           16                       # Number of read requests responded to by this memory
system.physmem.num_reads::switch_cpus2.data         3600                       # Number of read requests responded to by this memory
system.physmem.num_reads::total                 16842                       # Number of read requests responded to by this memory
system.physmem.num_writes::writebacks           11445                       # Number of write requests responded to by this memory
system.physmem.num_writes::functional               0                       # Number of write requests responded to by this memory
system.physmem.num_writes::interrupt                0                       # Number of write requests responded to by this memory
system.physmem.num_writes::switch_cpus0.dtb.walker            0                       # Number of write requests responded to by this memory
system.physmem.num_writes::switch_cpus0.itb.walker            0                       # Number of write requests responded to by this memory
system.physmem.num_writes::switch_cpus0.inst            0                       # Number of write requests responded to by this memory
system.physmem.num_writes::switch_cpus0.data            0                       # Number of write requests responded to by this memory
system.physmem.num_writes::switch_cpus1.dtb.walker            0                       # Number of write requests responded to by this memory
system.physmem.num_writes::switch_cpus1.itb.walker            0                       # Number of write requests responded to by this memory
system.physmem.num_writes::switch_cpus1.inst            0                       # Number of write requests responded to by this memory
system.physmem.num_writes::switch_cpus1.data            0                       # Number of write requests responded to by this memory
system.physmem.num_writes::switch_cpus2.dtb.walker            0                       # Number of write requests responded to by this memory
system.physmem.num_writes::switch_cpus2.itb.walker            0                       # Number of write requests responded to by this memory
system.physmem.num_writes::switch_cpus2.inst            0                       # Number of write requests responded to by this memory
system.physmem.num_writes::switch_cpus2.data            0                       # Number of write requests responded to by this memory
system.physmem.num_writes::cpu0.dtb.walker            0                       # Number of write requests responded to by this memory
system.physmem.num_writes::cpu0.itb.walker            0                       # Number of write requests responded to by this memory
system.physmem.num_writes::cpu0.inst                0                       # Number of write requests responded to by this memory
system.physmem.num_writes::cpu0.data                0                       # Number of write requests responded to by this memory
system.physmem.num_writes::cpu1.dtb.walker            0                       # Number of write requests responded to by this memory
system.physmem.num_writes::cpu1.itb.walker            0                       # Number of write requests responded to by this memory
system.physmem.num_writes::cpu1.inst                0                       # Number of write requests responded to by this memory
system.physmem.num_writes::cpu1.data                0                       # Number of write requests responded to by this memory
system.physmem.num_writes::cpu2.dtb.walker            0                       # Number of write requests responded to by this memory
system.physmem.num_writes::cpu2.itb.walker            0                       # Number of write requests responded to by this memory
system.physmem.num_writes::cpu2.inst                0                       # Number of write requests responded to by this memory
system.physmem.num_writes::cpu2.data                0                       # Number of write requests responded to by this memory
system.physmem.num_writes::total                11445                       # Number of write requests responded to by this memory
system.physmem.bw_read::switch_cpus0.inst        50758                       # Total read bandwidth from this memory (bytes/s)
system.physmem.bw_read::switch_cpus0.data     16394947                       # Total read bandwidth from this memory (bytes/s)
system.physmem.bw_read::switch_cpus1.inst        47133                       # Total read bandwidth from this memory (bytes/s)
system.physmem.bw_read::switch_cpus1.data     31459300                       # Total read bandwidth from this memory (bytes/s)
system.physmem.bw_read::switch_cpus2.inst        58010                       # Total read bandwidth from this memory (bytes/s)
system.physmem.bw_read::switch_cpus2.data     13052147                       # Total read bandwidth from this memory (bytes/s)
system.physmem.bw_read::total                61062294                       # Total read bandwidth from this memory (bytes/s)
system.physmem.bw_inst_read::switch_cpus0.inst        50758                       # Instruction read bandwidth from this memory (bytes/s)
system.physmem.bw_inst_read::switch_cpus1.inst        47133                       # Instruction read bandwidth from this memory (bytes/s)
system.physmem.bw_inst_read::switch_cpus2.inst        58010                       # Instruction read bandwidth from this memory (bytes/s)
system.physmem.bw_inst_read::total             155901                       # Instruction read bandwidth from this memory (bytes/s)
system.physmem.bw_write::writebacks          41494950                       # Write bandwidth from this memory (bytes/s)
system.physmem.bw_write::total               41494950                       # Write bandwidth from this memory (bytes/s)
system.physmem.bw_total::writebacks          41494950                       # Total bandwidth to/from this memory (bytes/s)
system.physmem.bw_total::switch_cpus0.inst        50758                       # Total bandwidth to/from this memory (bytes/s)
system.physmem.bw_total::switch_cpus0.data     16394947                       # Total bandwidth to/from this memory (bytes/s)
system.physmem.bw_total::switch_cpus1.inst        47133                       # Total bandwidth to/from this memory (bytes/s)
system.physmem.bw_total::switch_cpus1.data     31459300                       # Total bandwidth to/from this memory (bytes/s)
system.physmem.bw_total::switch_cpus2.inst        58010                       # Total bandwidth to/from this memory (bytes/s)
system.physmem.bw_total::switch_cpus2.data     13052147                       # Total bandwidth to/from this memory (bytes/s)
system.physmem.bw_total::total              102557244                       # Total bandwidth to/from this memory (bytes/s)
system.switch_cpus0.dtb.inst_hits                   0                       # ITB inst hits
system.switch_cpus0.dtb.inst_misses                 0                       # ITB inst misses
system.switch_cpus0.dtb.read_hits                   0                       # DTB read hits
system.switch_cpus0.dtb.read_misses                 0                       # DTB read misses
system.switch_cpus0.dtb.write_hits                  0                       # DTB write hits
system.switch_cpus0.dtb.write_misses                0                       # DTB write misses
system.switch_cpus0.dtb.flush_tlb                   0                       # Number of times complete TLB was flushed
system.switch_cpus0.dtb.flush_tlb_mva               0                       # Number of times TLB was flushed by MVA
system.switch_cpus0.dtb.flush_tlb_mva_asid            0                       # Number of times TLB was flushed by MVA & ASID
system.switch_cpus0.dtb.flush_tlb_asid              0                       # Number of times TLB was flushed by ASID
system.switch_cpus0.dtb.flush_entries               0                       # Number of entries that have been flushed from TLB
system.switch_cpus0.dtb.align_faults                0                       # Number of TLB faults due to alignment restrictions
system.switch_cpus0.dtb.prefetch_faults             0                       # Number of TLB faults due to prefetch
system.switch_cpus0.dtb.domain_faults               0                       # Number of TLB faults due to domain restrictions
system.switch_cpus0.dtb.perms_faults                0                       # Number of TLB faults due to permissions restrictions
system.switch_cpus0.dtb.read_accesses               0                       # DTB read accesses
system.switch_cpus0.dtb.write_accesses              0                       # DTB write accesses
system.switch_cpus0.dtb.inst_accesses               0                       # ITB inst accesses
system.switch_cpus0.dtb.hits                        0                       # DTB hits
system.switch_cpus0.dtb.misses                      0                       # DTB misses
system.switch_cpus0.dtb.accesses                    0                       # DTB accesses
system.switch_cpus0.itb.inst_hits                   0                       # ITB inst hits
system.switch_cpus0.itb.inst_misses                 0                       # ITB inst misses
system.switch_cpus0.itb.read_hits                   0                       # DTB read hits
system.switch_cpus0.itb.read_misses                 0                       # DTB read misses
system.switch_cpus0.itb.write_hits                  0                       # DTB write hits
system.switch_cpus0.itb.write_misses                0                       # DTB write misses
system.switch_cpus0.itb.flush_tlb                   0                       # Number of times complete TLB was flushed
system.switch_cpus0.itb.flush_tlb_mva               0                       # Number of times TLB was flushed by MVA
system.switch_cpus0.itb.flush_tlb_mva_asid            0                       # Number of times TLB was flushed by MVA & ASID
system.switch_cpus0.itb.flush_tlb_asid              0                       # Number of times TLB was flushed by ASID
system.switch_cpus0.itb.flush_entries               0                       # Number of entries that have been flushed from TLB
system.switch_cpus0.itb.align_faults                0                       # Number of TLB faults due to alignment restrictions
system.switch_cpus0.itb.prefetch_faults             0                       # Number of TLB faults due to prefetch
system.switch_cpus0.itb.domain_faults               0                       # Number of TLB faults due to domain restrictions
system.switch_cpus0.itb.perms_faults                0                       # Number of TLB faults due to permissions restrictions
system.switch_cpus0.itb.read_accesses               0                       # DTB read accesses
system.switch_cpus0.itb.write_accesses              0                       # DTB write accesses
system.switch_cpus0.itb.inst_accesses               0                       # ITB inst accesses
system.switch_cpus0.itb.hits                        0                       # DTB hits
system.switch_cpus0.itb.misses                      0                       # DTB misses
system.switch_cpus0.itb.accesses                    0                       # DTB accesses
system.cpu0.workload.num_syscalls                   0                       # Number of system calls
system.switch_cpus0.numCycles                84663159                       # number of cpu cycles simulated
system.switch_cpus0.numWorkItemsStarted             0                       # number of work items this cpu started
system.switch_cpus0.numWorkItemsCompleted            0                       # number of work items this cpu completed
system.switch_cpus0.BPredUnit.lookups        31107926                       # Number of BP lookups
system.switch_cpus0.BPredUnit.condPredicted     25361268                       # Number of conditional branches predicted
system.switch_cpus0.BPredUnit.condIncorrect      2077888                       # Number of conditional branches incorrect
system.switch_cpus0.BPredUnit.BTBLookups     13090530                       # Number of BTB lookups
system.switch_cpus0.BPredUnit.BTBHits        12156003                       # Number of BTB hits
system.switch_cpus0.BPredUnit.BTBCorrect            0                       # Number of correct BTB predictions (this stat may not work properly.
system.switch_cpus0.BPredUnit.usedRAS         3351715                       # Number of times the RAS was used to get a target.
system.switch_cpus0.BPredUnit.RASInCorrect        91979                       # Number of incorrect RAS predictions.
system.switch_cpus0.fetch.icacheStallCycles     31117631                       # Number of cycles fetch is stalled on an Icache miss
system.switch_cpus0.fetch.Insts             170914249                       # Number of instructions fetch has processed
system.switch_cpus0.fetch.Branches           31107926                       # Number of branches that fetch encountered
system.switch_cpus0.fetch.predictedBranches     15507718                       # Number of branches that fetch has predicted taken
system.switch_cpus0.fetch.Cycles             37967539                       # Number of cycles fetch has run and was not squashing or blocked
system.switch_cpus0.fetch.SquashCycles       11046469                       # Number of cycles fetch has spent squashing
system.switch_cpus0.fetch.BlockedCycles       5158202                       # Number of cycles fetch has spent blocked
system.switch_cpus0.fetch.PendingTrapStallCycles           49                       # Number of stall cycles due to pending traps
system.switch_cpus0.fetch.CacheLines         15358702                       # Number of cache lines fetched
system.switch_cpus0.fetch.IcacheSquashes      1005148                       # Number of outstanding Icache misses that were squashed
system.switch_cpus0.fetch.rateDist::samples     83186398                       # Number of instructions fetched each cycle (Total)
system.switch_cpus0.fetch.rateDist::mean     2.546457                       # Number of instructions fetched each cycle (Total)
system.switch_cpus0.fetch.rateDist::stdev     3.295261                       # Number of instructions fetched each cycle (Total)
system.switch_cpus0.fetch.rateDist::underflows            0      0.00%      0.00% # Number of instructions fetched each cycle (Total)
system.switch_cpus0.fetch.rateDist::0        45218859     54.36%     54.36% # Number of instructions fetched each cycle (Total)
system.switch_cpus0.fetch.rateDist::1         2508861      3.02%     57.37% # Number of instructions fetched each cycle (Total)
system.switch_cpus0.fetch.rateDist::2         4707544      5.66%     63.03% # Number of instructions fetched each cycle (Total)
system.switch_cpus0.fetch.rateDist::3         4661800      5.60%     68.64% # Number of instructions fetched each cycle (Total)
system.switch_cpus0.fetch.rateDist::4         2909003      3.50%     72.13% # Number of instructions fetched each cycle (Total)
system.switch_cpus0.fetch.rateDist::5         2300281      2.77%     74.90% # Number of instructions fetched each cycle (Total)
system.switch_cpus0.fetch.rateDist::6         1448093      1.74%     76.64% # Number of instructions fetched each cycle (Total)
system.switch_cpus0.fetch.rateDist::7         1360377      1.64%     78.28% # Number of instructions fetched each cycle (Total)
system.switch_cpus0.fetch.rateDist::8        18071580     21.72%    100.00% # Number of instructions fetched each cycle (Total)
system.switch_cpus0.fetch.rateDist::overflows            0      0.00%    100.00% # Number of instructions fetched each cycle (Total)
system.switch_cpus0.fetch.rateDist::min_value            0                       # Number of instructions fetched each cycle (Total)
system.switch_cpus0.fetch.rateDist::max_value            8                       # Number of instructions fetched each cycle (Total)
system.switch_cpus0.fetch.rateDist::total     83186398                       # Number of instructions fetched each cycle (Total)
system.switch_cpus0.fetch.branchRate         0.367432                       # Number of branch fetches per cycle
system.switch_cpus0.fetch.rate               2.018756                       # Number of inst fetches per cycle
system.switch_cpus0.decode.IdleCycles        32447428                       # Number of cycles decode is idle
system.switch_cpus0.decode.BlockedCycles      5098038                       # Number of cycles decode is blocked
system.switch_cpus0.decode.RunCycles         36473873                       # Number of cycles decode is running
system.switch_cpus0.decode.UnblockCycles       224314                       # Number of cycles decode is unblocking
system.switch_cpus0.decode.SquashCycles       8942737                       # Number of cycles decode is squashing
system.switch_cpus0.decode.BranchResolved      5261871                       # Number of times decode resolved a branch
system.switch_cpus0.decode.BranchMispred          256                       # Number of times decode detected a branch misprediction
system.switch_cpus0.decode.DecodedInsts     205085253                       # Number of instructions handled by decode
system.switch_cpus0.decode.SquashedInsts         1391                       # Number of squashed instructions handled by decode
system.switch_cpus0.rename.SquashCycles       8942737                       # Number of cycles rename is squashing
system.switch_cpus0.rename.IdleCycles        34803838                       # Number of cycles rename is idle
system.switch_cpus0.rename.BlockCycles         990537                       # Number of cycles rename is blocking
system.switch_cpus0.rename.serializeStallCycles       877248                       # count of cycles rename stalled for serializing inst
system.switch_cpus0.rename.RunCycles         34296625                       # Number of cycles rename is running
system.switch_cpus0.rename.UnblockCycles      3275405                       # Number of cycles rename is unblocking
system.switch_cpus0.rename.RenamedInsts     197776907                       # Number of instructions processed by rename
system.switch_cpus0.rename.ROBFullEvents           43                       # Number of times rename has blocked due to ROB full
system.switch_cpus0.rename.IQFullEvents       1361615                       # Number of times rename has blocked due to IQ full
system.switch_cpus0.rename.LSQFullEvents      1003623                       # Number of times rename has blocked due to LSQ full
system.switch_cpus0.rename.RenamedOperands    277662620                       # Number of destination operands rename has renamed
system.switch_cpus0.rename.RenameLookups    922720331                       # Number of register rename lookups that rename has made
system.switch_cpus0.rename.int_rename_lookups    922720331                       # Number of integer rename lookups
system.switch_cpus0.rename.CommittedMaps    171704564                       # Number of HB maps that are committed
system.switch_cpus0.rename.UndoneMaps       105958051                       # Number of HB maps that are undone due to squashing
system.switch_cpus0.rename.serializingInsts        35186                       # count of serializing insts renamed
system.switch_cpus0.rename.tempSerializingInsts        16907                       # count of temporary serializing insts renamed
system.switch_cpus0.rename.skidInsts          9121202                       # count of insts added to the skid buffer
system.switch_cpus0.memDep0.insertedLoads     18307829                       # Number of loads inserted to the mem dependence unit.
system.switch_cpus0.memDep0.insertedStores      9349943                       # Number of stores inserted to the mem dependence unit.
system.switch_cpus0.memDep0.conflictingLoads       116585                       # Number of conflicting loads.
system.switch_cpus0.memDep0.conflictingStores      2850016                       # Number of conflicting stores.
system.switch_cpus0.iq.iqInstsAdded         186425964                       # Number of instructions added to the IQ (excludes non-spec)
system.switch_cpus0.iq.iqNonSpecInstsAdded        33813                       # Number of non-speculative instructions added to the IQ
system.switch_cpus0.iq.iqInstsIssued        148496573                       # Number of instructions issued
system.switch_cpus0.iq.iqSquashedInstsIssued       291473                       # Number of squashed instructions issued
system.switch_cpus0.iq.iqSquashedInstsExamined     63060493                       # Number of squashed instructions iterated over during squash; mainly for profiling
system.switch_cpus0.iq.iqSquashedOperandsExamined    192854582                       # Number of squashed operands that are examined and possibly removed from graph
system.switch_cpus0.iq.iqSquashedNonSpecRemoved            1                       # Number of squashed non-spec instructions that were removed
system.switch_cpus0.iq.issued_per_cycle::samples     83186398                       # Number of insts issued each cycle
system.switch_cpus0.iq.issued_per_cycle::mean     1.785106                       # Number of insts issued each cycle
system.switch_cpus0.iq.issued_per_cycle::stdev     1.899740                       # Number of insts issued each cycle
system.switch_cpus0.iq.issued_per_cycle::underflows            0      0.00%      0.00% # Number of insts issued each cycle
system.switch_cpus0.iq.issued_per_cycle::0     28411291     34.15%     34.15% # Number of insts issued each cycle
system.switch_cpus0.iq.issued_per_cycle::1     18202286     21.88%     56.04% # Number of insts issued each cycle
system.switch_cpus0.iq.issued_per_cycle::2     11784112     14.17%     70.20% # Number of insts issued each cycle
system.switch_cpus0.iq.issued_per_cycle::3      7861244      9.45%     79.65% # Number of insts issued each cycle
system.switch_cpus0.iq.issued_per_cycle::4      8308469      9.99%     89.64% # Number of insts issued each cycle
system.switch_cpus0.iq.issued_per_cycle::5      3995814      4.80%     94.44% # Number of insts issued each cycle
system.switch_cpus0.iq.issued_per_cycle::6      3169739      3.81%     98.25% # Number of insts issued each cycle
system.switch_cpus0.iq.issued_per_cycle::7       716593      0.86%     99.11% # Number of insts issued each cycle
system.switch_cpus0.iq.issued_per_cycle::8       736850      0.89%    100.00% # Number of insts issued each cycle
system.switch_cpus0.iq.issued_per_cycle::overflows            0      0.00%    100.00% # Number of insts issued each cycle
system.switch_cpus0.iq.issued_per_cycle::min_value            0                       # Number of insts issued each cycle
system.switch_cpus0.iq.issued_per_cycle::max_value            8                       # Number of insts issued each cycle
system.switch_cpus0.iq.issued_per_cycle::total     83186398                       # Number of insts issued each cycle
system.switch_cpus0.iq.fu_full::No_OpClass            0      0.00%      0.00% # attempts to use FU when none available
system.switch_cpus0.iq.fu_full::IntAlu         924926     72.30%     72.30% # attempts to use FU when none available
system.switch_cpus0.iq.fu_full::IntMult             0      0.00%     72.30% # attempts to use FU when none available
system.switch_cpus0.iq.fu_full::IntDiv              0      0.00%     72.30% # attempts to use FU when none available
system.switch_cpus0.iq.fu_full::FloatAdd            0      0.00%     72.30% # attempts to use FU when none available
system.switch_cpus0.iq.fu_full::FloatCmp            0      0.00%     72.30% # attempts to use FU when none available
system.switch_cpus0.iq.fu_full::FloatCvt            0      0.00%     72.30% # attempts to use FU when none available
system.switch_cpus0.iq.fu_full::FloatMult            0      0.00%     72.30% # attempts to use FU when none available
system.switch_cpus0.iq.fu_full::FloatDiv            0      0.00%     72.30% # attempts to use FU when none available
system.switch_cpus0.iq.fu_full::FloatSqrt            0      0.00%     72.30% # attempts to use FU when none available
system.switch_cpus0.iq.fu_full::SimdAdd             0      0.00%     72.30% # attempts to use FU when none available
system.switch_cpus0.iq.fu_full::SimdAddAcc            0      0.00%     72.30% # attempts to use FU when none available
system.switch_cpus0.iq.fu_full::SimdAlu             0      0.00%     72.30% # attempts to use FU when none available
system.switch_cpus0.iq.fu_full::SimdCmp             0      0.00%     72.30% # attempts to use FU when none available
system.switch_cpus0.iq.fu_full::SimdCvt             0      0.00%     72.30% # attempts to use FU when none available
system.switch_cpus0.iq.fu_full::SimdMisc            0      0.00%     72.30% # attempts to use FU when none available
system.switch_cpus0.iq.fu_full::SimdMult            0      0.00%     72.30% # attempts to use FU when none available
system.switch_cpus0.iq.fu_full::SimdMultAcc            0      0.00%     72.30% # attempts to use FU when none available
system.switch_cpus0.iq.fu_full::SimdShift            0      0.00%     72.30% # attempts to use FU when none available
system.switch_cpus0.iq.fu_full::SimdShiftAcc            0      0.00%     72.30% # attempts to use FU when none available
system.switch_cpus0.iq.fu_full::SimdSqrt            0      0.00%     72.30% # attempts to use FU when none available
system.switch_cpus0.iq.fu_full::SimdFloatAdd            0      0.00%     72.30% # attempts to use FU when none available
system.switch_cpus0.iq.fu_full::SimdFloatAlu            0      0.00%     72.30% # attempts to use FU when none available
system.switch_cpus0.iq.fu_full::SimdFloatCmp            0      0.00%     72.30% # attempts to use FU when none available
system.switch_cpus0.iq.fu_full::SimdFloatCvt            0      0.00%     72.30% # attempts to use FU when none available
system.switch_cpus0.iq.fu_full::SimdFloatDiv            0      0.00%     72.30% # attempts to use FU when none available
system.switch_cpus0.iq.fu_full::SimdFloatMisc            0      0.00%     72.30% # attempts to use FU when none available
system.switch_cpus0.iq.fu_full::SimdFloatMult            0      0.00%     72.30% # attempts to use FU when none available
system.switch_cpus0.iq.fu_full::SimdFloatMultAcc            0      0.00%     72.30% # attempts to use FU when none available
system.switch_cpus0.iq.fu_full::SimdFloatSqrt            0      0.00%     72.30% # attempts to use FU when none available
system.switch_cpus0.iq.fu_full::MemRead        177732     13.89%     86.19% # attempts to use FU when none available
system.switch_cpus0.iq.fu_full::MemWrite       176669     13.81%    100.00% # attempts to use FU when none available
system.switch_cpus0.iq.fu_full::IprAccess            0      0.00%    100.00% # attempts to use FU when none available
system.switch_cpus0.iq.fu_full::InstPrefetch            0      0.00%    100.00% # attempts to use FU when none available
system.switch_cpus0.iq.FU_type_0::No_OpClass            0      0.00%      0.00% # Type of FU issued
system.switch_cpus0.iq.FU_type_0::IntAlu    124201041     83.64%     83.64% # Type of FU issued
system.switch_cpus0.iq.FU_type_0::IntMult      1994784      1.34%     84.98% # Type of FU issued
system.switch_cpus0.iq.FU_type_0::IntDiv            0      0.00%     84.98% # Type of FU issued
system.switch_cpus0.iq.FU_type_0::FloatAdd            0      0.00%     84.98% # Type of FU issued
system.switch_cpus0.iq.FU_type_0::FloatCmp            0      0.00%     84.98% # Type of FU issued
system.switch_cpus0.iq.FU_type_0::FloatCvt            0      0.00%     84.98% # Type of FU issued
system.switch_cpus0.iq.FU_type_0::FloatMult            0      0.00%     84.98% # Type of FU issued
system.switch_cpus0.iq.FU_type_0::FloatDiv            0      0.00%     84.98% # Type of FU issued
system.switch_cpus0.iq.FU_type_0::FloatSqrt            0      0.00%     84.98% # Type of FU issued
system.switch_cpus0.iq.FU_type_0::SimdAdd            0      0.00%     84.98% # Type of FU issued
system.switch_cpus0.iq.FU_type_0::SimdAddAcc            0      0.00%     84.98% # Type of FU issued
system.switch_cpus0.iq.FU_type_0::SimdAlu            0      0.00%     84.98% # Type of FU issued
system.switch_cpus0.iq.FU_type_0::SimdCmp            0      0.00%     84.98% # Type of FU issued
system.switch_cpus0.iq.FU_type_0::SimdCvt            0      0.00%     84.98% # Type of FU issued
system.switch_cpus0.iq.FU_type_0::SimdMisc            0      0.00%     84.98% # Type of FU issued
system.switch_cpus0.iq.FU_type_0::SimdMult            0      0.00%     84.98% # Type of FU issued
system.switch_cpus0.iq.FU_type_0::SimdMultAcc            0      0.00%     84.98% # Type of FU issued
system.switch_cpus0.iq.FU_type_0::SimdShift            0      0.00%     84.98% # Type of FU issued
system.switch_cpus0.iq.FU_type_0::SimdShiftAcc            0      0.00%     84.98% # Type of FU issued
system.switch_cpus0.iq.FU_type_0::SimdSqrt            0      0.00%     84.98% # Type of FU issued
system.switch_cpus0.iq.FU_type_0::SimdFloatAdd            0      0.00%     84.98% # Type of FU issued
system.switch_cpus0.iq.FU_type_0::SimdFloatAlu            0      0.00%     84.98% # Type of FU issued
system.switch_cpus0.iq.FU_type_0::SimdFloatCmp            0      0.00%     84.98% # Type of FU issued
system.switch_cpus0.iq.FU_type_0::SimdFloatCvt            0      0.00%     84.98% # Type of FU issued
system.switch_cpus0.iq.FU_type_0::SimdFloatDiv            0      0.00%     84.98% # Type of FU issued
system.switch_cpus0.iq.FU_type_0::SimdFloatMisc        16906      0.01%     84.99% # Type of FU issued
system.switch_cpus0.iq.FU_type_0::SimdFloatMult            0      0.00%     84.99% # Type of FU issued
system.switch_cpus0.iq.FU_type_0::SimdFloatMultAcc            0      0.00%     84.99% # Type of FU issued
system.switch_cpus0.iq.FU_type_0::SimdFloatSqrt            0      0.00%     84.99% # Type of FU issued
system.switch_cpus0.iq.FU_type_0::MemRead     14353997      9.67%     94.66% # Type of FU issued
system.switch_cpus0.iq.FU_type_0::MemWrite      7929845      5.34%    100.00% # Type of FU issued
system.switch_cpus0.iq.FU_type_0::IprAccess            0      0.00%    100.00% # Type of FU issued
system.switch_cpus0.iq.FU_type_0::InstPrefetch            0      0.00%    100.00% # Type of FU issued
system.switch_cpus0.iq.FU_type_0::total     148496573                       # Type of FU issued
system.switch_cpus0.iq.rate                  1.753969                       # Inst issue rate
system.switch_cpus0.iq.fu_busy_cnt            1279327                       # FU busy when requested
system.switch_cpus0.iq.fu_busy_rate          0.008615                       # FU busy rate (busy events/executed inst)
system.switch_cpus0.iq.int_inst_queue_reads    381750344                       # Number of integer instruction queue reads
system.switch_cpus0.iq.int_inst_queue_writes    249520590                       # Number of integer instruction queue writes
system.switch_cpus0.iq.int_inst_queue_wakeup_accesses    145093089                       # Number of integer instruction queue wakeup accesses
system.switch_cpus0.iq.fp_inst_queue_reads            0                       # Number of floating instruction queue reads
system.switch_cpus0.iq.fp_inst_queue_writes            0                       # Number of floating instruction queue writes
system.switch_cpus0.iq.fp_inst_queue_wakeup_accesses            0                       # Number of floating instruction queue wakeup accesses
system.switch_cpus0.iq.int_alu_accesses     149775900                       # Number of integer alu accesses
system.switch_cpus0.iq.fp_alu_accesses              0                       # Number of floating point alu accesses
system.switch_cpus0.iew.lsq.thread0.forwLoads       464241                       # Number of loads that had data forwarded from stores
system.switch_cpus0.iew.lsq.thread0.invAddrLoads            0                       # Number of loads ignored due to an invalid address
system.switch_cpus0.iew.lsq.thread0.squashedLoads      7114394                       # Number of loads squashed
system.switch_cpus0.iew.lsq.thread0.ignoredResponses         2014                       # Number of memory responses ignored because the instruction is squashed
system.switch_cpus0.iew.lsq.thread0.memOrderViolation          321                       # Number of memory ordering violations
system.switch_cpus0.iew.lsq.thread0.squashedStores      2258901                       # Number of stores squashed
system.switch_cpus0.iew.lsq.thread0.invAddrSwpfs            0                       # Number of software prefetches ignored due to an invalid address
system.switch_cpus0.iew.lsq.thread0.blockedLoads            0                       # Number of blocked loads due to partial load-store forwarding
system.switch_cpus0.iew.lsq.thread0.rescheduledLoads            0                       # Number of loads that were rescheduled
system.switch_cpus0.iew.lsq.thread0.cacheBlocked            0                       # Number of times an access to memory failed due to the cache being blocked
system.switch_cpus0.iew.iewIdleCycles               0                       # Number of cycles IEW is idle
system.switch_cpus0.iew.iewSquashCycles       8942737                       # Number of cycles IEW is squashing
system.switch_cpus0.iew.iewBlockCycles         506493                       # Number of cycles IEW is blocking
system.switch_cpus0.iew.iewUnblockCycles        88402                       # Number of cycles IEW is unblocking
system.switch_cpus0.iew.iewDispatchedInsts    186459782                       # Number of instructions dispatched to IQ
system.switch_cpus0.iew.iewDispSquashedInsts       371477                       # Number of squashed instructions skipped by dispatch
system.switch_cpus0.iew.iewDispLoadInsts     18307829                       # Number of dispatched load instructions
system.switch_cpus0.iew.iewDispStoreInsts      9349943                       # Number of dispatched store instructions
system.switch_cpus0.iew.iewDispNonSpecInsts        16907                       # Number of dispatched non-speculative instructions
system.switch_cpus0.iew.iewIQFullEvents         69054                       # Number of times the IQ has become full, causing a stall
system.switch_cpus0.iew.iewLSQFullEvents            0                       # Number of times the LSQ has become full, causing a stall
system.switch_cpus0.iew.memOrderViolationEvents          321                       # Number of memory order violations
system.switch_cpus0.iew.predictedTakenIncorrect      1297645                       # Number of branches that were predicted taken incorrectly
system.switch_cpus0.iew.predictedNotTakenIncorrect      1157942                       # Number of branches that were predicted not taken incorrectly
system.switch_cpus0.iew.branchMispredicts      2455587                       # Number of branch mispredicts detected at execute
system.switch_cpus0.iew.iewExecutedInsts    146515332                       # Number of executed instructions
system.switch_cpus0.iew.iewExecLoadInsts     13697967                       # Number of load instructions executed
system.switch_cpus0.iew.iewExecSquashedInsts      1981241                       # Number of squashed instructions skipped in execute
system.switch_cpus0.iew.exec_swp                    0                       # number of swp insts executed
system.switch_cpus0.iew.exec_nop                    5                       # number of nop insts executed
system.switch_cpus0.iew.exec_refs            21431948                       # number of memory reference insts executed
system.switch_cpus0.iew.exec_branches        20775121                       # Number of branches executed
system.switch_cpus0.iew.exec_stores           7733981                       # Number of stores executed
system.switch_cpus0.iew.exec_rate            1.730568                       # Inst execution rate
system.switch_cpus0.iew.wb_sent             145134521                       # cumulative count of insts sent to commit
system.switch_cpus0.iew.wb_count            145093089                       # cumulative count of insts written-back
system.switch_cpus0.iew.wb_producers         92475114                       # num instructions producing a value
system.switch_cpus0.iew.wb_consumers        265403792                       # num instructions consuming a value
system.switch_cpus0.iew.wb_penalized                0                       # number of instrctions required to write to 'other' IQ
system.switch_cpus0.iew.wb_rate              1.713769                       # insts written-back per cycle
system.switch_cpus0.iew.wb_fanout            0.348432                       # average fanout of values written-back
system.switch_cpus0.iew.wb_penalized_rate            0                       # fraction of instructions written-back that wrote to 'other' IQ
system.switch_cpus0.commit.commitCommittedInsts    100000001                       # The number of committed instructions
system.switch_cpus0.commit.commitCommittedOps    123129416                       # The number of committed instructions
system.switch_cpus0.commit.commitSquashedInsts     63330786                       # The number of squashed insts skipped by commit
system.switch_cpus0.commit.commitNonSpecStalls        33812                       # The number of times commit has been forced to stall to communicate backwards
system.switch_cpus0.commit.branchMispredicts      2103009                       # The number of times a branch was mispredicted
system.switch_cpus0.commit.committed_per_cycle::samples     74243661                       # Number of insts commited each cycle
system.switch_cpus0.commit.committed_per_cycle::mean     1.658450                       # Number of insts commited each cycle
system.switch_cpus0.commit.committed_per_cycle::stdev     2.151886                       # Number of insts commited each cycle
system.switch_cpus0.commit.committed_per_cycle::underflows            0      0.00%      0.00% # Number of insts commited each cycle
system.switch_cpus0.commit.committed_per_cycle::0     28038403     37.77%     37.77% # Number of insts commited each cycle
system.switch_cpus0.commit.committed_per_cycle::1     20866344     28.11%     65.87% # Number of insts commited each cycle
system.switch_cpus0.commit.committed_per_cycle::2      8675651     11.69%     77.56% # Number of insts commited each cycle
system.switch_cpus0.commit.committed_per_cycle::3      4323904      5.82%     83.38% # Number of insts commited each cycle
system.switch_cpus0.commit.committed_per_cycle::4      4299510      5.79%     89.17% # Number of insts commited each cycle
system.switch_cpus0.commit.committed_per_cycle::5      1726610      2.33%     91.50% # Number of insts commited each cycle
system.switch_cpus0.commit.committed_per_cycle::6      1731500      2.33%     93.83% # Number of insts commited each cycle
system.switch_cpus0.commit.committed_per_cycle::7       933944      1.26%     95.09% # Number of insts commited each cycle
system.switch_cpus0.commit.committed_per_cycle::8      3647795      4.91%    100.00% # Number of insts commited each cycle
system.switch_cpus0.commit.committed_per_cycle::overflows            0      0.00%    100.00% # Number of insts commited each cycle
system.switch_cpus0.commit.committed_per_cycle::min_value            0                       # Number of insts commited each cycle
system.switch_cpus0.commit.committed_per_cycle::max_value            8                       # Number of insts commited each cycle
system.switch_cpus0.commit.committed_per_cycle::total     74243661                       # Number of insts commited each cycle
system.switch_cpus0.commit.committedInsts    100000001                       # Number of instructions committed
system.switch_cpus0.commit.committedOps     123129416                       # Number of ops (including micro ops) committed
system.switch_cpus0.commit.swp_count                0                       # Number of s/w prefetches committed
system.switch_cpus0.commit.refs              18284477                       # Number of memory references committed
system.switch_cpus0.commit.loads             11193435                       # Number of loads committed
system.switch_cpus0.commit.membars              16906                       # Number of memory barriers committed
system.switch_cpus0.commit.branches          17772285                       # Number of branches committed
system.switch_cpus0.commit.fp_insts                 0                       # Number of committed floating point instructions.
system.switch_cpus0.commit.int_insts        110930287                       # Number of committed integer instructions.
system.switch_cpus0.commit.function_calls      2539564                       # Number of function calls committed.
system.switch_cpus0.commit.bw_lim_events      3647795                       # number cycles where commit BW limit reached
system.switch_cpus0.commit.bw_limited               0                       # number of insts not committed due to BW limits
system.switch_cpus0.rob.rob_reads           257056068                       # The number of ROB reads
system.switch_cpus0.rob.rob_writes          381868981                       # The number of ROB writes
system.switch_cpus0.timesIdled                  31500                       # Number of times that the entire CPU went into an idle state and unscheduled itself
system.switch_cpus0.idleCycles                1476761                       # Total number of cycles that the CPU has spent unscheduled due to idling
system.switch_cpus0.committedInsts          100000001                       # Number of Instructions Simulated
system.switch_cpus0.committedOps            123129416                       # Number of Ops (including micro ops) Simulated
system.switch_cpus0.committedInsts_total    100000001                       # Number of Instructions Simulated
system.switch_cpus0.cpi                      0.846632                       # CPI: Cycles Per Instruction
system.switch_cpus0.cpi_total                0.846632                       # CPI: Total CPI of All Threads
system.switch_cpus0.ipc                      1.181151                       # IPC: Instructions Per Cycle
system.switch_cpus0.ipc_total                1.181151                       # IPC: Total IPC of All Threads
system.switch_cpus0.int_regfile_reads       658174981                       # number of integer regfile reads
system.switch_cpus0.int_regfile_writes      201521463                       # number of integer regfile writes
system.switch_cpus0.misc_regfile_reads      188383100                       # number of misc regfile reads
system.switch_cpus0.misc_regfile_writes         33812                       # number of misc regfile writes
system.switch_cpus1.dtb.inst_hits                   0                       # ITB inst hits
system.switch_cpus1.dtb.inst_misses                 0                       # ITB inst misses
system.switch_cpus1.dtb.read_hits                   0                       # DTB read hits
system.switch_cpus1.dtb.read_misses                 0                       # DTB read misses
system.switch_cpus1.dtb.write_hits                  0                       # DTB write hits
system.switch_cpus1.dtb.write_misses                0                       # DTB write misses
system.switch_cpus1.dtb.flush_tlb                   0                       # Number of times complete TLB was flushed
system.switch_cpus1.dtb.flush_tlb_mva               0                       # Number of times TLB was flushed by MVA
system.switch_cpus1.dtb.flush_tlb_mva_asid            0                       # Number of times TLB was flushed by MVA & ASID
system.switch_cpus1.dtb.flush_tlb_asid              0                       # Number of times TLB was flushed by ASID
system.switch_cpus1.dtb.flush_entries               0                       # Number of entries that have been flushed from TLB
system.switch_cpus1.dtb.align_faults                0                       # Number of TLB faults due to alignment restrictions
system.switch_cpus1.dtb.prefetch_faults             0                       # Number of TLB faults due to prefetch
system.switch_cpus1.dtb.domain_faults               0                       # Number of TLB faults due to domain restrictions
system.switch_cpus1.dtb.perms_faults                0                       # Number of TLB faults due to permissions restrictions
system.switch_cpus1.dtb.read_accesses               0                       # DTB read accesses
system.switch_cpus1.dtb.write_accesses              0                       # DTB write accesses
system.switch_cpus1.dtb.inst_accesses               0                       # ITB inst accesses
system.switch_cpus1.dtb.hits                        0                       # DTB hits
system.switch_cpus1.dtb.misses                      0                       # DTB misses
system.switch_cpus1.dtb.accesses                    0                       # DTB accesses
system.switch_cpus1.itb.inst_hits                   0                       # ITB inst hits
system.switch_cpus1.itb.inst_misses                 0                       # ITB inst misses
system.switch_cpus1.itb.read_hits                   0                       # DTB read hits
system.switch_cpus1.itb.read_misses                 0                       # DTB read misses
system.switch_cpus1.itb.write_hits                  0                       # DTB write hits
system.switch_cpus1.itb.write_misses                0                       # DTB write misses
system.switch_cpus1.itb.flush_tlb                   0                       # Number of times complete TLB was flushed
system.switch_cpus1.itb.flush_tlb_mva               0                       # Number of times TLB was flushed by MVA
system.switch_cpus1.itb.flush_tlb_mva_asid            0                       # Number of times TLB was flushed by MVA & ASID
system.switch_cpus1.itb.flush_tlb_asid              0                       # Number of times TLB was flushed by ASID
system.switch_cpus1.itb.flush_entries               0                       # Number of entries that have been flushed from TLB
system.switch_cpus1.itb.align_faults                0                       # Number of TLB faults due to alignment restrictions
system.switch_cpus1.itb.prefetch_faults             0                       # Number of TLB faults due to prefetch
system.switch_cpus1.itb.domain_faults               0                       # Number of TLB faults due to domain restrictions
system.switch_cpus1.itb.perms_faults                0                       # Number of TLB faults due to permissions restrictions
system.switch_cpus1.itb.read_accesses               0                       # DTB read accesses
system.switch_cpus1.itb.write_accesses              0                       # DTB write accesses
system.switch_cpus1.itb.inst_accesses               0                       # ITB inst accesses
system.switch_cpus1.itb.hits                        0                       # DTB hits
system.switch_cpus1.itb.misses                      0                       # DTB misses
system.switch_cpus1.itb.accesses                    0                       # DTB accesses
system.cpu1.workload.num_syscalls                   0                       # Number of system calls
system.switch_cpus1.numCycles                84663159                       # number of cpu cycles simulated
system.switch_cpus1.numWorkItemsStarted             0                       # number of work items this cpu started
system.switch_cpus1.numWorkItemsCompleted            0                       # number of work items this cpu completed
system.switch_cpus1.BPredUnit.lookups        30484467                       # Number of BP lookups
system.switch_cpus1.BPredUnit.condPredicted     24789689                       # Number of conditional branches predicted
system.switch_cpus1.BPredUnit.condIncorrect      2034295                       # Number of conditional branches incorrect
system.switch_cpus1.BPredUnit.BTBLookups     12934122                       # Number of BTB lookups
system.switch_cpus1.BPredUnit.BTBHits        12024384                       # Number of BTB hits
system.switch_cpus1.BPredUnit.BTBCorrect            0                       # Number of correct BTB predictions (this stat may not work properly.
system.switch_cpus1.BPredUnit.usedRAS         3132797                       # Number of times the RAS was used to get a target.
system.switch_cpus1.BPredUnit.RASInCorrect        89769                       # Number of incorrect RAS predictions.
system.switch_cpus1.fetch.icacheStallCycles     33702244                       # Number of cycles fetch is stalled on an Icache miss
system.switch_cpus1.fetch.Insts             166486399                       # Number of instructions fetch has processed
system.switch_cpus1.fetch.Branches           30484467                       # Number of branches that fetch encountered
system.switch_cpus1.fetch.predictedBranches     15157181                       # Number of branches that fetch has predicted taken
system.switch_cpus1.fetch.Cycles             34976432                       # Number of cycles fetch has run and was not squashing or blocked
system.switch_cpus1.fetch.SquashCycles       10444632                       # Number of cycles fetch has spent squashing
system.switch_cpus1.fetch.BlockedCycles       5656519                       # Number of cycles fetch has spent blocked
system.switch_cpus1.fetch.PendingTrapStallCycles           29                       # Number of stall cycles due to pending traps
system.switch_cpus1.fetch.CacheLines         16467320                       # Number of cache lines fetched
system.switch_cpus1.fetch.IcacheSquashes       804905                       # Number of outstanding Icache misses that were squashed
system.switch_cpus1.fetch.rateDist::samples     82710634                       # Number of instructions fetched each cycle (Total)
system.switch_cpus1.fetch.rateDist::mean     2.479968                       # Number of instructions fetched each cycle (Total)
system.switch_cpus1.fetch.rateDist::stdev     3.296097                       # Number of instructions fetched each cycle (Total)
system.switch_cpus1.fetch.rateDist::underflows            0      0.00%      0.00% # Number of instructions fetched each cycle (Total)
system.switch_cpus1.fetch.rateDist::0        47734202     57.71%     57.71% # Number of instructions fetched each cycle (Total)
system.switch_cpus1.fetch.rateDist::1         1867215      2.26%     59.97% # Number of instructions fetched each cycle (Total)
system.switch_cpus1.fetch.rateDist::2         2451022      2.96%     62.93% # Number of instructions fetched each cycle (Total)
system.switch_cpus1.fetch.rateDist::3         3710461      4.49%     67.42% # Number of instructions fetched each cycle (Total)
system.switch_cpus1.fetch.rateDist::4         3605946      4.36%     71.78% # Number of instructions fetched each cycle (Total)
system.switch_cpus1.fetch.rateDist::5         2746112      3.32%     75.10% # Number of instructions fetched each cycle (Total)
system.switch_cpus1.fetch.rateDist::6         1626608      1.97%     77.07% # Number of instructions fetched each cycle (Total)
system.switch_cpus1.fetch.rateDist::7         2447430      2.96%     80.02% # Number of instructions fetched each cycle (Total)
system.switch_cpus1.fetch.rateDist::8        16521638     19.98%    100.00% # Number of instructions fetched each cycle (Total)
system.switch_cpus1.fetch.rateDist::overflows            0      0.00%    100.00% # Number of instructions fetched each cycle (Total)
system.switch_cpus1.fetch.rateDist::min_value            0                       # Number of instructions fetched each cycle (Total)
system.switch_cpus1.fetch.rateDist::max_value            8                       # Number of instructions fetched each cycle (Total)
system.switch_cpus1.fetch.rateDist::total     82710634                       # Number of instructions fetched each cycle (Total)
system.switch_cpus1.fetch.branchRate         0.360068                       # Number of branch fetches per cycle
system.switch_cpus1.fetch.rate               1.966456                       # Number of inst fetches per cycle
system.switch_cpus1.decode.IdleCycles        34825268                       # Number of cycles decode is idle
system.switch_cpus1.decode.BlockedCycles      5541618                       # Number of cycles decode is blocked
system.switch_cpus1.decode.RunCycles         33705120                       # Number of cycles decode is running
system.switch_cpus1.decode.UnblockCycles       263458                       # Number of cycles decode is unblocking
system.switch_cpus1.decode.SquashCycles       8375169                       # Number of cycles decode is squashing
system.switch_cpus1.decode.BranchResolved      5176332                       # Number of times decode resolved a branch
system.switch_cpus1.decode.BranchMispred          284                       # Number of times decode detected a branch misprediction
system.switch_cpus1.decode.DecodedInsts     199158263                       # Number of instructions handled by decode
system.switch_cpus1.decode.SquashedInsts         1308                       # Number of squashed instructions handled by decode
system.switch_cpus1.rename.SquashCycles       8375169                       # Number of cycles rename is squashing
system.switch_cpus1.rename.IdleCycles        36657337                       # Number of cycles rename is idle
system.switch_cpus1.rename.BlockCycles         979845                       # Number of cycles rename is blocking
system.switch_cpus1.rename.serializeStallCycles      1874629                       # count of cycles rename stalled for serializing inst
system.switch_cpus1.rename.RunCycles         32093136                       # Number of cycles rename is running
system.switch_cpus1.rename.UnblockCycles      2730512                       # Number of cycles rename is unblocking
system.switch_cpus1.rename.RenamedInsts     193387159                       # Number of instructions processed by rename
system.switch_cpus1.rename.ROBFullEvents          922                       # Number of times rename has blocked due to ROB full
system.switch_cpus1.rename.IQFullEvents       1178347                       # Number of times rename has blocked due to IQ full
system.switch_cpus1.rename.LSQFullEvents       858866                       # Number of times rename has blocked due to LSQ full
system.switch_cpus1.rename.FullRegisterEvents          108                       # Number of times there has been no free registers
system.switch_cpus1.rename.RenamedOperands    269360244                       # Number of destination operands rename has renamed
system.switch_cpus1.rename.RenameLookups    900697855                       # Number of register rename lookups that rename has made
system.switch_cpus1.rename.int_rename_lookups    900697855                       # Number of integer rename lookups
system.switch_cpus1.rename.CommittedMaps    167695734                       # Number of HB maps that are committed
system.switch_cpus1.rename.UndoneMaps       101664433                       # Number of HB maps that are undone due to squashing
system.switch_cpus1.rename.serializingInsts        41056                       # count of serializing insts renamed
system.switch_cpus1.rename.tempSerializingInsts        23166                       # count of temporary serializing insts renamed
system.switch_cpus1.rename.skidInsts          7705504                       # count of insts added to the skid buffer
system.switch_cpus1.memDep0.insertedLoads     17917700                       # Number of loads inserted to the mem dependence unit.
system.switch_cpus1.memDep0.insertedStores      9518374                       # Number of stores inserted to the mem dependence unit.
system.switch_cpus1.memDep0.conflictingLoads       184254                       # Number of conflicting loads.
system.switch_cpus1.memDep0.conflictingStores      3132361                       # Number of conflicting stores.
system.switch_cpus1.iq.iqInstsAdded         179788400                       # Number of instructions added to the IQ (excludes non-spec)
system.switch_cpus1.iq.iqNonSpecInstsAdded        38992                       # Number of non-speculative instructions added to the IQ
system.switch_cpus1.iq.iqInstsIssued        144897923                       # Number of instructions issued
system.switch_cpus1.iq.iqSquashedInstsIssued       260537                       # Number of squashed instructions issued
system.switch_cpus1.iq.iqSquashedInstsExamined     58394080                       # Number of squashed instructions iterated over during squash; mainly for profiling
system.switch_cpus1.iq.iqSquashedOperandsExamined    177477645                       # Number of squashed operands that are examined and possibly removed from graph
system.switch_cpus1.iq.iqSquashedNonSpecRemoved         6252                       # Number of squashed non-spec instructions that were removed
system.switch_cpus1.iq.issued_per_cycle::samples     82710634                       # Number of insts issued each cycle
system.switch_cpus1.iq.issued_per_cycle::mean     1.751866                       # Number of insts issued each cycle
system.switch_cpus1.iq.issued_per_cycle::stdev     1.897107                       # Number of insts issued each cycle
system.switch_cpus1.iq.issued_per_cycle::underflows            0      0.00%      0.00% # Number of insts issued each cycle
system.switch_cpus1.iq.issued_per_cycle::0     28904832     34.95%     34.95% # Number of insts issued each cycle
system.switch_cpus1.iq.issued_per_cycle::1     18119233     21.91%     56.85% # Number of insts issued each cycle
system.switch_cpus1.iq.issued_per_cycle::2     11704117     14.15%     71.00% # Number of insts issued each cycle
system.switch_cpus1.iq.issued_per_cycle::3      7979871      9.65%     80.65% # Number of insts issued each cycle
system.switch_cpus1.iq.issued_per_cycle::4      7472651      9.03%     89.69% # Number of insts issued each cycle
system.switch_cpus1.iq.issued_per_cycle::5      3984961      4.82%     94.50% # Number of insts issued each cycle
system.switch_cpus1.iq.issued_per_cycle::6      2932181      3.55%     98.05% # Number of insts issued each cycle
system.switch_cpus1.iq.issued_per_cycle::7       879956      1.06%     99.11% # Number of insts issued each cycle
system.switch_cpus1.iq.issued_per_cycle::8       732832      0.89%    100.00% # Number of insts issued each cycle
system.switch_cpus1.iq.issued_per_cycle::overflows            0      0.00%    100.00% # Number of insts issued each cycle
system.switch_cpus1.iq.issued_per_cycle::min_value            0                       # Number of insts issued each cycle
system.switch_cpus1.iq.issued_per_cycle::max_value            8                       # Number of insts issued each cycle
system.switch_cpus1.iq.issued_per_cycle::total     82710634                       # Number of insts issued each cycle
system.switch_cpus1.iq.fu_full::No_OpClass            0      0.00%      0.00% # attempts to use FU when none available
system.switch_cpus1.iq.fu_full::IntAlu         706038     69.03%     69.03% # attempts to use FU when none available
system.switch_cpus1.iq.fu_full::IntMult             5      0.00%     69.03% # attempts to use FU when none available
system.switch_cpus1.iq.fu_full::IntDiv              0      0.00%     69.03% # attempts to use FU when none available
system.switch_cpus1.iq.fu_full::FloatAdd            0      0.00%     69.03% # attempts to use FU when none available
system.switch_cpus1.iq.fu_full::FloatCmp            0      0.00%     69.03% # attempts to use FU when none available
system.switch_cpus1.iq.fu_full::FloatCvt            0      0.00%     69.03% # attempts to use FU when none available
system.switch_cpus1.iq.fu_full::FloatMult            0      0.00%     69.03% # attempts to use FU when none available
system.switch_cpus1.iq.fu_full::FloatDiv            0      0.00%     69.03% # attempts to use FU when none available
system.switch_cpus1.iq.fu_full::FloatSqrt            0      0.00%     69.03% # attempts to use FU when none available
system.switch_cpus1.iq.fu_full::SimdAdd             0      0.00%     69.03% # attempts to use FU when none available
system.switch_cpus1.iq.fu_full::SimdAddAcc            0      0.00%     69.03% # attempts to use FU when none available
system.switch_cpus1.iq.fu_full::SimdAlu             0      0.00%     69.03% # attempts to use FU when none available
system.switch_cpus1.iq.fu_full::SimdCmp             0      0.00%     69.03% # attempts to use FU when none available
system.switch_cpus1.iq.fu_full::SimdCvt             0      0.00%     69.03% # attempts to use FU when none available
system.switch_cpus1.iq.fu_full::SimdMisc            0      0.00%     69.03% # attempts to use FU when none available
system.switch_cpus1.iq.fu_full::SimdMult            0      0.00%     69.03% # attempts to use FU when none available
system.switch_cpus1.iq.fu_full::SimdMultAcc            0      0.00%     69.03% # attempts to use FU when none available
system.switch_cpus1.iq.fu_full::SimdShift            0      0.00%     69.03% # attempts to use FU when none available
system.switch_cpus1.iq.fu_full::SimdShiftAcc            0      0.00%     69.03% # attempts to use FU when none available
system.switch_cpus1.iq.fu_full::SimdSqrt            0      0.00%     69.03% # attempts to use FU when none available
system.switch_cpus1.iq.fu_full::SimdFloatAdd            0      0.00%     69.03% # attempts to use FU when none available
system.switch_cpus1.iq.fu_full::SimdFloatAlu            0      0.00%     69.03% # attempts to use FU when none available
system.switch_cpus1.iq.fu_full::SimdFloatCmp            0      0.00%     69.03% # attempts to use FU when none available
system.switch_cpus1.iq.fu_full::SimdFloatCvt            0      0.00%     69.03% # attempts to use FU when none available
system.switch_cpus1.iq.fu_full::SimdFloatDiv            0      0.00%     69.03% # attempts to use FU when none available
system.switch_cpus1.iq.fu_full::SimdFloatMisc            0      0.00%     69.03% # attempts to use FU when none available
system.switch_cpus1.iq.fu_full::SimdFloatMult            0      0.00%     69.03% # attempts to use FU when none available
system.switch_cpus1.iq.fu_full::SimdFloatMultAcc            0      0.00%     69.03% # attempts to use FU when none available
system.switch_cpus1.iq.fu_full::SimdFloatSqrt            0      0.00%     69.03% # attempts to use FU when none available
system.switch_cpus1.iq.fu_full::MemRead        146731     14.35%     83.38% # attempts to use FU when none available
system.switch_cpus1.iq.fu_full::MemWrite       169975     16.62%    100.00% # attempts to use FU when none available
system.switch_cpus1.iq.fu_full::IprAccess            0      0.00%    100.00% # attempts to use FU when none available
system.switch_cpus1.iq.fu_full::InstPrefetch            0      0.00%    100.00% # attempts to use FU when none available
system.switch_cpus1.iq.FU_type_0::No_OpClass            0      0.00%      0.00% # Type of FU issued
system.switch_cpus1.iq.FU_type_0::IntAlu    120574381     83.21%     83.21% # Type of FU issued
system.switch_cpus1.iq.FU_type_0::IntMult      2047183      1.41%     84.63% # Type of FU issued
system.switch_cpus1.iq.FU_type_0::IntDiv            0      0.00%     84.63% # Type of FU issued
system.switch_cpus1.iq.FU_type_0::FloatAdd            0      0.00%     84.63% # Type of FU issued
system.switch_cpus1.iq.FU_type_0::FloatCmp            0      0.00%     84.63% # Type of FU issued
system.switch_cpus1.iq.FU_type_0::FloatCvt            0      0.00%     84.63% # Type of FU issued
system.switch_cpus1.iq.FU_type_0::FloatMult            0      0.00%     84.63% # Type of FU issued
system.switch_cpus1.iq.FU_type_0::FloatDiv            0      0.00%     84.63% # Type of FU issued
system.switch_cpus1.iq.FU_type_0::FloatSqrt            0      0.00%     84.63% # Type of FU issued
system.switch_cpus1.iq.FU_type_0::SimdAdd            0      0.00%     84.63% # Type of FU issued
system.switch_cpus1.iq.FU_type_0::SimdAddAcc            0      0.00%     84.63% # Type of FU issued
system.switch_cpus1.iq.FU_type_0::SimdAlu            0      0.00%     84.63% # Type of FU issued
system.switch_cpus1.iq.FU_type_0::SimdCmp            0      0.00%     84.63% # Type of FU issued
system.switch_cpus1.iq.FU_type_0::SimdCvt            0      0.00%     84.63% # Type of FU issued
system.switch_cpus1.iq.FU_type_0::SimdMisc            0      0.00%     84.63% # Type of FU issued
system.switch_cpus1.iq.FU_type_0::SimdMult            0      0.00%     84.63% # Type of FU issued
system.switch_cpus1.iq.FU_type_0::SimdMultAcc            0      0.00%     84.63% # Type of FU issued
system.switch_cpus1.iq.FU_type_0::SimdShift            0      0.00%     84.63% # Type of FU issued
system.switch_cpus1.iq.FU_type_0::SimdShiftAcc            0      0.00%     84.63% # Type of FU issued
system.switch_cpus1.iq.FU_type_0::SimdSqrt            0      0.00%     84.63% # Type of FU issued
system.switch_cpus1.iq.FU_type_0::SimdFloatAdd            0      0.00%     84.63% # Type of FU issued
system.switch_cpus1.iq.FU_type_0::SimdFloatAlu            0      0.00%     84.63% # Type of FU issued
system.switch_cpus1.iq.FU_type_0::SimdFloatCmp            0      0.00%     84.63% # Type of FU issued
system.switch_cpus1.iq.FU_type_0::SimdFloatCvt            0      0.00%     84.63% # Type of FU issued
system.switch_cpus1.iq.FU_type_0::SimdFloatDiv            0      0.00%     84.63% # Type of FU issued
system.switch_cpus1.iq.FU_type_0::SimdFloatMisc        16370      0.01%     84.64% # Type of FU issued
system.switch_cpus1.iq.FU_type_0::SimdFloatMult            0      0.00%     84.64% # Type of FU issued
system.switch_cpus1.iq.FU_type_0::SimdFloatMultAcc            0      0.00%     84.64% # Type of FU issued
system.switch_cpus1.iq.FU_type_0::SimdFloatSqrt            0      0.00%     84.64% # Type of FU issued
system.switch_cpus1.iq.FU_type_0::MemRead     14291035      9.86%     94.50% # Type of FU issued
system.switch_cpus1.iq.FU_type_0::MemWrite      7968954      5.50%    100.00% # Type of FU issued
system.switch_cpus1.iq.FU_type_0::IprAccess            0      0.00%    100.00% # Type of FU issued
system.switch_cpus1.iq.FU_type_0::InstPrefetch            0      0.00%    100.00% # Type of FU issued
system.switch_cpus1.iq.FU_type_0::total     144897923                       # Type of FU issued
system.switch_cpus1.iq.rate                  1.711464                       # Inst issue rate
system.switch_cpus1.iq.fu_busy_cnt            1022749                       # FU busy when requested
system.switch_cpus1.iq.fu_busy_rate          0.007058                       # FU busy rate (busy events/executed inst)
system.switch_cpus1.iq.int_inst_queue_reads    373789763                       # Number of integer instruction queue reads
system.switch_cpus1.iq.int_inst_queue_writes    238222283                       # Number of integer instruction queue writes
system.switch_cpus1.iq.int_inst_queue_wakeup_accesses    140822460                       # Number of integer instruction queue wakeup accesses
system.switch_cpus1.iq.fp_inst_queue_reads            0                       # Number of floating instruction queue reads
system.switch_cpus1.iq.fp_inst_queue_writes            0                       # Number of floating instruction queue writes
system.switch_cpus1.iq.fp_inst_queue_wakeup_accesses            0                       # Number of floating instruction queue wakeup accesses
system.switch_cpus1.iq.int_alu_accesses     145920672                       # Number of integer alu accesses
system.switch_cpus1.iq.fp_alu_accesses              0                       # Number of floating point alu accesses
system.switch_cpus1.iew.lsq.thread0.forwLoads       494063                       # Number of loads that had data forwarded from stores
system.switch_cpus1.iew.lsq.thread0.invAddrLoads            0                       # Number of loads ignored due to an invalid address
system.switch_cpus1.iew.lsq.thread0.squashedLoads      6851409                       # Number of loads squashed
system.switch_cpus1.iew.lsq.thread0.ignoredResponses         2243                       # Number of memory responses ignored because the instruction is squashed
system.switch_cpus1.iew.lsq.thread0.memOrderViolation          848                       # Number of memory ordering violations
system.switch_cpus1.iew.lsq.thread0.squashedStores      2425216                       # Number of stores squashed
system.switch_cpus1.iew.lsq.thread0.invAddrSwpfs            0                       # Number of software prefetches ignored due to an invalid address
system.switch_cpus1.iew.lsq.thread0.blockedLoads            0                       # Number of blocked loads due to partial load-store forwarding
system.switch_cpus1.iew.lsq.thread0.rescheduledLoads            0                       # Number of loads that were rescheduled
system.switch_cpus1.iew.lsq.thread0.cacheBlocked          435                       # Number of times an access to memory failed due to the cache being blocked
system.switch_cpus1.iew.iewIdleCycles               0                       # Number of cycles IEW is idle
system.switch_cpus1.iew.iewSquashCycles       8375169                       # Number of cycles IEW is squashing
system.switch_cpus1.iew.iewBlockCycles         564301                       # Number of cycles IEW is blocking
system.switch_cpus1.iew.iewUnblockCycles        95321                       # Number of cycles IEW is unblocking
system.switch_cpus1.iew.iewDispatchedInsts    179827395                       # Number of instructions dispatched to IQ
system.switch_cpus1.iew.iewDispSquashedInsts      1166864                       # Number of squashed instructions skipped by dispatch
system.switch_cpus1.iew.iewDispLoadInsts     17917700                       # Number of dispatched load instructions
system.switch_cpus1.iew.iewDispStoreInsts      9518374                       # Number of dispatched store instructions
system.switch_cpus1.iew.iewDispNonSpecInsts        22622                       # Number of dispatched non-speculative instructions
system.switch_cpus1.iew.iewIQFullEvents         72384                       # Number of times the IQ has become full, causing a stall
system.switch_cpus1.iew.iewLSQFullEvents            0                       # Number of times the LSQ has become full, causing a stall
system.switch_cpus1.iew.memOrderViolationEvents          848                       # Number of memory order violations
system.switch_cpus1.iew.predictedTakenIncorrect      1243485                       # Number of branches that were predicted taken incorrectly
system.switch_cpus1.iew.predictedNotTakenIncorrect      1148075                       # Number of branches that were predicted not taken incorrectly
system.switch_cpus1.iew.branchMispredicts      2391560                       # Number of branch mispredicts detected at execute
system.switch_cpus1.iew.iewExecutedInsts    142108754                       # Number of executed instructions
system.switch_cpus1.iew.iewExecLoadInsts     13457309                       # Number of load instructions executed
system.switch_cpus1.iew.iewExecSquashedInsts      2789166                       # Number of squashed instructions skipped in execute
system.switch_cpus1.iew.exec_swp                    0                       # number of swp insts executed
system.switch_cpus1.iew.exec_nop                    3                       # number of nop insts executed
system.switch_cpus1.iew.exec_refs            21244224                       # number of memory reference insts executed
system.switch_cpus1.iew.exec_branches        19905410                       # Number of branches executed
system.switch_cpus1.iew.exec_stores           7786915                       # Number of stores executed
system.switch_cpus1.iew.exec_rate            1.678519                       # Inst execution rate
system.switch_cpus1.iew.wb_sent             140859340                       # cumulative count of insts sent to commit
system.switch_cpus1.iew.wb_count            140822460                       # cumulative count of insts written-back
system.switch_cpus1.iew.wb_producers         90479178                       # num instructions producing a value
system.switch_cpus1.iew.wb_consumers        254087612                       # num instructions consuming a value
system.switch_cpus1.iew.wb_penalized                0                       # number of instrctions required to write to 'other' IQ
system.switch_cpus1.iew.wb_rate              1.663326                       # insts written-back per cycle
system.switch_cpus1.iew.wb_fanout            0.356094                       # average fanout of values written-back
system.switch_cpus1.iew.wb_penalized_rate            0                       # fraction of instructions written-back that wrote to 'other' IQ
system.switch_cpus1.commit.commitCommittedInsts     98211370                       # The number of committed instructions
system.switch_cpus1.commit.commitCommittedOps    120706023                       # The number of committed instructions
system.switch_cpus1.commit.commitSquashedInsts     59121568                       # The number of squashed insts skipped by commit
system.switch_cpus1.commit.commitNonSpecStalls        32740                       # The number of times commit has been forced to stall to communicate backwards
system.switch_cpus1.commit.branchMispredicts      2067988                       # The number of times a branch was mispredicted
system.switch_cpus1.commit.committed_per_cycle::samples     74335465                       # Number of insts commited each cycle
system.switch_cpus1.commit.committed_per_cycle::mean     1.623801                       # Number of insts commited each cycle
system.switch_cpus1.commit.committed_per_cycle::stdev     2.151174                       # Number of insts commited each cycle
system.switch_cpus1.commit.committed_per_cycle::underflows            0      0.00%      0.00% # Number of insts commited each cycle
system.switch_cpus1.commit.committed_per_cycle::0     28810489     38.76%     38.76% # Number of insts commited each cycle
system.switch_cpus1.commit.committed_per_cycle::1     21288130     28.64%     67.40% # Number of insts commited each cycle
system.switch_cpus1.commit.committed_per_cycle::2      7837286     10.54%     77.94% # Number of insts commited each cycle
system.switch_cpus1.commit.committed_per_cycle::3      4491905      6.04%     83.98% # Number of insts commited each cycle
system.switch_cpus1.commit.committed_per_cycle::4      3748373      5.04%     89.02% # Number of insts commited each cycle
system.switch_cpus1.commit.committed_per_cycle::5      1850286      2.49%     91.51% # Number of insts commited each cycle
system.switch_cpus1.commit.committed_per_cycle::6      1830882      2.46%     93.98% # Number of insts commited each cycle
system.switch_cpus1.commit.committed_per_cycle::7       787520      1.06%     95.04% # Number of insts commited each cycle
system.switch_cpus1.commit.committed_per_cycle::8      3690594      4.96%    100.00% # Number of insts commited each cycle
system.switch_cpus1.commit.committed_per_cycle::overflows            0      0.00%    100.00% # Number of insts commited each cycle
system.switch_cpus1.commit.committed_per_cycle::min_value            0                       # Number of insts commited each cycle
system.switch_cpus1.commit.committed_per_cycle::max_value            8                       # Number of insts commited each cycle
system.switch_cpus1.commit.committed_per_cycle::total     74335465                       # Number of insts commited each cycle
system.switch_cpus1.commit.committedInsts     98211370                       # Number of instructions committed
system.switch_cpus1.commit.committedOps     120706023                       # Number of ops (including micro ops) committed
[...]
system.cpu2.icache.ReadReq_miss_latency::total      2879250                       # number of ReadReq miss cycles
system.cpu2.icache.demand_miss_latency::switch_cpus2.inst      2879250                       # number of demand (read+write) miss cycles
system.cpu2.icache.demand_miss_latency::total      2879250                       # number of demand (read+write) miss cycles
system.cpu2.icache.overall_miss_latency::switch_cpus2.inst      2879250                       # number of overall miss cycles
system.cpu2.icache.overall_miss_latency::total      2879250                       # number of overall miss cycles
system.cpu2.icache.ReadReq_accesses::switch_cpus2.inst     16016331                       # number of ReadReq accesses(hits+misses)
system.cpu2.icache.ReadReq_accesses::total     16016331                       # number of ReadReq accesses(hits+misses)
system.cpu2.icache.demand_accesses::switch_cpus2.inst     16016331                       # number of demand (read+write) accesses
system.cpu2.icache.demand_accesses::total     16016331                       # number of demand (read+write) accesses
system.cpu2.icache.overall_accesses::switch_cpus2.inst     16016331                       # number of overall (read+write) accesses
system.cpu2.icache.overall_accesses::total     16016331                       # number of overall (read+write) accesses
system.cpu2.icache.ReadReq_miss_rate::switch_cpus2.inst     0.000001                       # miss rate for ReadReq accesses
system.cpu2.icache.ReadReq_miss_rate::total     0.000001                       # miss rate for ReadReq accesses
system.cpu2.icache.demand_miss_rate::switch_cpus2.inst     0.000001                       # miss rate for demand accesses
system.cpu2.icache.demand_miss_rate::total     0.000001                       # miss rate for demand accesses
system.cpu2.icache.overall_miss_rate::switch_cpus2.inst     0.000001                       # miss rate for overall accesses
system.cpu2.icache.overall_miss_rate::total     0.000001                       # miss rate for overall accesses
system.cpu2.icache.ReadReq_avg_miss_latency::switch_cpus2.inst 143962.500000                       # average ReadReq miss latency
system.cpu2.icache.ReadReq_avg_miss_latency::total 143962.500000                       # average ReadReq miss latency
system.cpu2.icache.demand_avg_miss_latency::switch_cpus2.inst 143962.500000                       # average overall miss latency
system.cpu2.icache.demand_avg_miss_latency::total 143962.500000                       # average overall miss latency
system.cpu2.icache.overall_avg_miss_latency::switch_cpus2.inst 143962.500000                       # average overall miss latency
system.cpu2.icache.overall_avg_miss_latency::total 143962.500000                       # average overall miss latency
system.cpu2.icache.blocked_cycles::no_mshrs            0                       # number of cycles access was blocked
system.cpu2.icache.blocked_cycles::no_targets            0                       # number of cycles access was blocked
system.cpu2.icache.blocked::no_mshrs                0                       # number of cycles access was blocked
system.cpu2.icache.blocked::no_targets              0                       # number of cycles access was blocked
system.cpu2.icache.avg_blocked_cycles::no_mshrs          nan                       # average number of cycles each access was blocked
system.cpu2.icache.avg_blocked_cycles::no_targets          nan                       # average number of cycles each access was blocked
system.cpu2.icache.fast_writes                      0                       # number of fast writes performed
system.cpu2.icache.cache_copies                     0                       # number of cache copies performed
system.cpu2.icache.ReadReq_mshr_hits::switch_cpus2.inst            4                       # number of ReadReq MSHR hits
system.cpu2.icache.ReadReq_mshr_hits::total            4                       # number of ReadReq MSHR hits
system.cpu2.icache.demand_mshr_hits::switch_cpus2.inst            4                       # number of demand (read+write) MSHR hits
system.cpu2.icache.demand_mshr_hits::total            4                       # number of demand (read+write) MSHR hits
system.cpu2.icache.overall_mshr_hits::switch_cpus2.inst            4                       # number of overall MSHR hits
system.cpu2.icache.overall_mshr_hits::total            4                       # number of overall MSHR hits
system.cpu2.icache.ReadReq_mshr_misses::switch_cpus2.inst           16                       # number of ReadReq MSHR misses
system.cpu2.icache.ReadReq_mshr_misses::total           16                       # number of ReadReq MSHR misses
system.cpu2.icache.demand_mshr_misses::switch_cpus2.inst           16                       # number of demand (read+write) MSHR misses
system.cpu2.icache.demand_mshr_misses::total           16                       # number of demand (read+write) MSHR misses
system.cpu2.icache.overall_mshr_misses::switch_cpus2.inst           16                       # number of overall MSHR misses
system.cpu2.icache.overall_mshr_misses::total           16                       # number of overall MSHR misses
system.cpu2.icache.ReadReq_mshr_miss_latency::switch_cpus2.inst      2245106                       # number of ReadReq MSHR miss cycles
system.cpu2.icache.ReadReq_mshr_miss_latency::total      2245106                       # number of ReadReq MSHR miss cycles
system.cpu2.icache.demand_mshr_miss_latency::switch_cpus2.inst      2245106                       # number of demand (read+write) MSHR miss cycles
system.cpu2.icache.demand_mshr_miss_latency::total      2245106                       # number of demand (read+write) MSHR miss cycles
system.cpu2.icache.overall_mshr_miss_latency::switch_cpus2.inst      2245106                       # number of overall MSHR miss cycles
system.cpu2.icache.overall_mshr_miss_latency::total      2245106                       # number of overall MSHR miss cycles
system.cpu2.icache.ReadReq_mshr_miss_rate::switch_cpus2.inst     0.000001                       # mshr miss rate for ReadReq accesses
system.cpu2.icache.ReadReq_mshr_miss_rate::total     0.000001                       # mshr miss rate for ReadReq accesses
system.cpu2.icache.demand_mshr_miss_rate::switch_cpus2.inst     0.000001                       # mshr miss rate for demand accesses
system.cpu2.icache.demand_mshr_miss_rate::total     0.000001                       # mshr miss rate for demand accesses
system.cpu2.icache.overall_mshr_miss_rate::switch_cpus2.inst     0.000001                       # mshr miss rate for overall accesses
system.cpu2.icache.overall_mshr_miss_rate::total     0.000001                       # mshr miss rate for overall accesses
system.cpu2.icache.ReadReq_avg_mshr_miss_latency::switch_cpus2.inst 140319.125000                       # average ReadReq mshr miss latency
system.cpu2.icache.ReadReq_avg_mshr_miss_latency::total 140319.125000                       # average ReadReq mshr miss latency
system.cpu2.icache.demand_avg_mshr_miss_latency::switch_cpus2.inst 140319.125000                       # average overall mshr miss latency
system.cpu2.icache.demand_avg_mshr_miss_latency::total 140319.125000                       # average overall mshr miss latency
system.cpu2.icache.overall_avg_mshr_miss_latency::switch_cpus2.inst 140319.125000                       # average overall mshr miss latency
system.cpu2.icache.overall_avg_mshr_miss_latency::total 140319.125000                       # average overall mshr miss latency
system.cpu2.icache.no_allocate_misses               0                       # Number of misses that were no-allocate
system.cpu2.dcache.replacements                 33316                       # number of replacements
system.cpu2.dcache.tagsinuse                      256                       # Cycle average of tags in use
system.cpu2.dcache.total_refs               164294480                       # Total number of references to valid blocks.
system.cpu2.dcache.sampled_refs                 33572                       # Sample count of references to valid blocks.
system.cpu2.dcache.avg_refs               4893.794829                       # Average number of references to valid blocks.
system.cpu2.dcache.warmup_cycle                     0                       # Cycle when the warmup percentage was hit.
system.cpu2.dcache.occ_blocks::switch_cpus2.data   230.713540                       # Average occupied blocks per requestor
system.cpu2.dcache.occ_blocks::cpu2.data    25.286460                       # Average occupied blocks per requestor
system.cpu2.dcache.occ_percent::switch_cpus2.data     0.901225                       # Average percentage of cache occupancy
system.cpu2.dcache.occ_percent::cpu2.data     0.098775                       # Average percentage of cache occupancy
system.cpu2.dcache.occ_percent::total               1                       # Average percentage of cache occupancy
system.cpu2.dcache.ReadReq_hits::switch_cpus2.data     10442401                       # number of ReadReq hits
system.cpu2.dcache.ReadReq_hits::total       10442401                       # number of ReadReq hits
system.cpu2.dcache.WriteReq_hits::switch_cpus2.data      7127147                       # number of WriteReq hits
system.cpu2.dcache.WriteReq_hits::total       7127147                       # number of WriteReq hits
system.cpu2.dcache.LoadLockedReq_hits::switch_cpus2.data        17242                       # number of LoadLockedReq hits
system.cpu2.dcache.LoadLockedReq_hits::total        17242                       # number of LoadLockedReq hits
system.cpu2.dcache.StoreCondReq_hits::switch_cpus2.data        17218                       # number of StoreCondReq hits
system.cpu2.dcache.StoreCondReq_hits::total        17218                       # number of StoreCondReq hits
system.cpu2.dcache.demand_hits::switch_cpus2.data     17569548                       # number of demand (read+write) hits
system.cpu2.dcache.demand_hits::total        17569548                       # number of demand (read+write) hits
system.cpu2.dcache.overall_hits::switch_cpus2.data     17569548                       # number of overall hits
system.cpu2.dcache.overall_hits::total       17569548                       # number of overall hits
system.cpu2.dcache.ReadReq_misses::switch_cpus2.data        67099                       # number of ReadReq misses
system.cpu2.dcache.ReadReq_misses::total        67099                       # number of ReadReq misses
system.cpu2.dcache.demand_misses::switch_cpus2.data        67099                       # number of demand (read+write) misses
system.cpu2.dcache.demand_misses::total         67099                       # number of demand (read+write) misses
system.cpu2.dcache.overall_misses::switch_cpus2.data        67099                       # number of overall misses
system.cpu2.dcache.overall_misses::total        67099                       # number of overall misses
system.cpu2.dcache.ReadReq_miss_latency::switch_cpus2.data   2177477252                       # number of ReadReq miss cycles
system.cpu2.dcache.ReadReq_miss_latency::total   2177477252                       # number of ReadReq miss cycles
system.cpu2.dcache.demand_miss_latency::switch_cpus2.data   2177477252                       # number of demand (read+write) miss cycles
system.cpu2.dcache.demand_miss_latency::total   2177477252                       # number of demand (read+write) miss cycles
system.cpu2.dcache.overall_miss_latency::switch_cpus2.data   2177477252                       # number of overall miss cycles
system.cpu2.dcache.overall_miss_latency::total   2177477252                       # number of overall miss cycles
system.cpu2.dcache.ReadReq_accesses::switch_cpus2.data     10509500                       # number of ReadReq accesses(hits+misses)
system.cpu2.dcache.ReadReq_accesses::total     10509500                       # number of ReadReq accesses(hits+misses)
system.cpu2.dcache.WriteReq_accesses::switch_cpus2.data      7127147                       # number of WriteReq accesses(hits+misses)
system.cpu2.dcache.WriteReq_accesses::total      7127147                       # number of WriteReq accesses(hits+misses)
system.cpu2.dcache.LoadLockedReq_accesses::switch_cpus2.data        17242                       # number of LoadLockedReq accesses(hits+misses)
system.cpu2.dcache.LoadLockedReq_accesses::total        17242                       # number of LoadLockedReq accesses(hits+misses)
system.cpu2.dcache.StoreCondReq_accesses::switch_cpus2.data        17218                       # number of StoreCondReq accesses(hits+misses)
system.cpu2.dcache.StoreCondReq_accesses::total        17218                       # number of StoreCondReq accesses(hits+misses)
system.cpu2.dcache.demand_accesses::switch_cpus2.data     17636647                       # number of demand (read+write) accesses
system.cpu2.dcache.demand_accesses::total     17636647                       # number of demand (read+write) accesses
system.cpu2.dcache.overall_accesses::switch_cpus2.data     17636647                       # number of overall (read+write) accesses
system.cpu2.dcache.overall_accesses::total     17636647                       # number of overall (read+write) accesses
system.cpu2.dcache.ReadReq_miss_rate::switch_cpus2.data     0.006385                       # miss rate for ReadReq accesses
system.cpu2.dcache.ReadReq_miss_rate::total     0.006385                       # miss rate for ReadReq accesses
system.cpu2.dcache.demand_miss_rate::switch_cpus2.data     0.003805                       # miss rate for demand accesses
system.cpu2.dcache.demand_miss_rate::total     0.003805                       # miss rate for demand accesses
system.cpu2.dcache.overall_miss_rate::switch_cpus2.data     0.003805                       # miss rate for overall accesses
system.cpu2.dcache.overall_miss_rate::total     0.003805                       # miss rate for overall accesses
system.cpu2.dcache.ReadReq_avg_miss_latency::switch_cpus2.data 32451.709444                       # average ReadReq miss latency
system.cpu2.dcache.ReadReq_avg_miss_latency::total 32451.709444                       # average ReadReq miss latency
system.cpu2.dcache.demand_avg_miss_latency::switch_cpus2.data 32451.709444                       # average overall miss latency
system.cpu2.dcache.demand_avg_miss_latency::total 32451.709444                       # average overall miss latency
system.cpu2.dcache.overall_avg_miss_latency::switch_cpus2.data 32451.709444                       # average overall miss latency
system.cpu2.dcache.overall_avg_miss_latency::total 32451.709444                       # average overall miss latency
system.cpu2.dcache.blocked_cycles::no_mshrs            0                       # number of cycles access was blocked
system.cpu2.dcache.blocked_cycles::no_targets            0                       # number of cycles access was blocked
system.cpu2.dcache.blocked::no_mshrs                0                       # number of cycles access was blocked
system.cpu2.dcache.blocked::no_targets              0                       # number of cycles access was blocked
system.cpu2.dcache.avg_blocked_cycles::no_mshrs          nan                       # average number of cycles each access was blocked
system.cpu2.dcache.avg_blocked_cycles::no_targets          nan                       # average number of cycles each access was blocked
system.cpu2.dcache.fast_writes                      0                       # number of fast writes performed
system.cpu2.dcache.cache_copies                     0                       # number of cache copies performed
system.cpu2.dcache.writebacks::writebacks         9756                       # number of writebacks
system.cpu2.dcache.writebacks::total             9756                       # number of writebacks
system.cpu2.dcache.ReadReq_mshr_hits::switch_cpus2.data        33783                       # number of ReadReq MSHR hits
system.cpu2.dcache.ReadReq_mshr_hits::total        33783                       # number of ReadReq MSHR hits
system.cpu2.dcache.demand_mshr_hits::switch_cpus2.data        33783                       # number of demand (read+write) MSHR hits
system.cpu2.dcache.demand_mshr_hits::total        33783                       # number of demand (read+write) MSHR hits
system.cpu2.dcache.overall_mshr_hits::switch_cpus2.data        33783                       # number of overall MSHR hits
system.cpu2.dcache.overall_mshr_hits::total        33783                       # number of overall MSHR hits
system.cpu2.dcache.ReadReq_mshr_misses::switch_cpus2.data        33316                       # number of ReadReq MSHR misses
system.cpu2.dcache.ReadReq_mshr_misses::total        33316                       # number of ReadReq MSHR misses
system.cpu2.dcache.demand_mshr_misses::switch_cpus2.data        33316                       # number of demand (read+write) MSHR misses
system.cpu2.dcache.demand_mshr_misses::total        33316                       # number of demand (read+write) MSHR misses
system.cpu2.dcache.overall_mshr_misses::switch_cpus2.data        33316                       # number of overall MSHR misses
system.cpu2.dcache.overall_mshr_misses::total        33316                       # number of overall MSHR misses
system.cpu2.dcache.ReadReq_mshr_miss_latency::switch_cpus2.data    692321233                       # number of ReadReq MSHR miss cycles
system.cpu2.dcache.ReadReq_mshr_miss_latency::total    692321233                       # number of ReadReq MSHR miss cycles
system.cpu2.dcache.demand_mshr_miss_latency::switch_cpus2.data    692321233                       # number of demand (read+write) MSHR miss cycles
system.cpu2.dcache.demand_mshr_miss_latency::total    692321233                       # number of demand (read+write) MSHR miss cycles
system.cpu2.dcache.overall_mshr_miss_latency::switch_cpus2.data    692321233                       # number of overall MSHR miss cycles
system.cpu2.dcache.overall_mshr_miss_latency::total    692321233                       # number of overall MSHR miss cycles
system.cpu2.dcache.ReadReq_mshr_miss_rate::switch_cpus2.data     0.003170                       # mshr miss rate for ReadReq accesses
system.cpu2.dcache.ReadReq_mshr_miss_rate::total     0.003170                       # mshr miss rate for ReadReq accesses
system.cpu2.dcache.demand_mshr_miss_rate::switch_cpus2.data     0.001889                       # mshr miss rate for demand accesses
system.cpu2.dcache.demand_mshr_miss_rate::total     0.001889                       # mshr miss rate for demand accesses
system.cpu2.dcache.overall_mshr_miss_rate::switch_cpus2.data     0.001889                       # mshr miss rate for overall accesses
system.cpu2.dcache.overall_mshr_miss_rate::total     0.001889                       # mshr miss rate for overall accesses
system.cpu2.dcache.ReadReq_avg_mshr_miss_latency::switch_cpus2.data 20780.442820                       # average ReadReq mshr miss latency
system.cpu2.dcache.ReadReq_avg_mshr_miss_latency::total 20780.442820                       # average ReadReq mshr miss latency
system.cpu2.dcache.demand_avg_mshr_miss_latency::switch_cpus2.data 20780.442820                       # average overall mshr miss latency
system.cpu2.dcache.demand_avg_mshr_miss_latency::total 20780.442820                       # average overall mshr miss latency
system.cpu2.dcache.overall_avg_mshr_miss_latency::switch_cpus2.data 20780.442820                       # average overall mshr miss latency
system.cpu2.dcache.overall_avg_mshr_miss_latency::total 20780.442820                       # average overall mshr miss latency
system.cpu2.dcache.no_allocate_misses               0                       # Number of misses that were no-allocate

---------- End Simulation Statistics   ----------
