
---------- Begin Simulation Statistics ----------
sim_seconds                                  0.001076                       # Number of seconds simulated
sim_ticks                                  1075563513                       # Number of ticks simulated
final_tick                               400277704941                       # Number of ticks from beginning of simulation (restored from checkpoints and never reset)
sim_freq                                 1000000000000                       # Frequency of simulated ticks
host_inst_rate                                 155566                       # Simulator instruction rate (inst/s)
host_op_rate                                   197584                       # Simulator op (including micro ops) rate (op/s)
host_tick_rate                                  27713                       # Simulator tick rate (ticks/s)
host_mem_usage                               67338196                       # Number of bytes of host memory used
host_seconds                                 38811.28                       # Real time elapsed on the host
sim_insts                                  6037715208                       # Number of instructions simulated
sim_ops                                    7668472503                       # Number of ops (including micro ops) simulated
system.physmem.bytes_read::switch_cpus0.inst         3072                       # Number of bytes read from this memory
system.physmem.bytes_read::switch_cpus0.data        17792                       # Number of bytes read from this memory
system.physmem.bytes_read::switch_cpus1.inst         3456                       # Number of bytes read from this memory
system.physmem.bytes_read::switch_cpus1.data        13056                       # Number of bytes read from this memory
system.physmem.bytes_read::switch_cpus2.inst         3840                       # Number of bytes read from this memory
system.physmem.bytes_read::switch_cpus2.data        35840                       # Number of bytes read from this memory
system.physmem.bytes_read::switch_cpus3.inst         1664                       # Number of bytes read from this memory
system.physmem.bytes_read::switch_cpus3.data        64768                       # Number of bytes read from this memory
system.physmem.bytes_read::switch_cpus4.inst         3456                       # Number of bytes read from this memory
system.physmem.bytes_read::switch_cpus4.data        14464                       # Number of bytes read from this memory
system.physmem.bytes_read::switch_cpus5.inst         1664                       # Number of bytes read from this memory
system.physmem.bytes_read::switch_cpus5.data        63616                       # Number of bytes read from this memory
system.physmem.bytes_read::switch_cpus6.inst         1408                       # Number of bytes read from this memory
system.physmem.bytes_read::switch_cpus6.data        11776                       # Number of bytes read from this memory
system.physmem.bytes_read::switch_cpus7.inst         1408                       # Number of bytes read from this memory
system.physmem.bytes_read::switch_cpus7.data        11904                       # Number of bytes read from this memory
system.physmem.bytes_read::total               253184                       # Number of bytes read from this memory
system.physmem.bytes_inst_read::switch_cpus0.inst         3072                       # Number of instructions bytes read from this memory
system.physmem.bytes_inst_read::switch_cpus1.inst         3456                       # Number of instructions bytes read from this memory
system.physmem.bytes_inst_read::switch_cpus2.inst         3840                       # Number of instructions bytes read from this memory
system.physmem.bytes_inst_read::switch_cpus3.inst         1664                       # Number of instructions bytes read from this memory
system.physmem.bytes_inst_read::switch_cpus4.inst         3456                       # Number of instructions bytes read from this memory
system.physmem.bytes_inst_read::switch_cpus5.inst         1664                       # Number of instructions bytes read from this memory
system.physmem.bytes_inst_read::switch_cpus6.inst         1408                       # Number of instructions bytes read from this memory
system.physmem.bytes_inst_read::switch_cpus7.inst         1408                       # Number of instructions bytes read from this memory
system.physmem.bytes_inst_read::total           19968                       # Number of instructions bytes read from this memory
system.physmem.bytes_written::writebacks       139648                       # Number of bytes written to this memory
system.physmem.bytes_written::total            139648                       # Number of bytes written to this memory
system.physmem.num_reads::switch_cpus0.inst           24                       # Number of read requests responded to by this memory
system.physmem.num_reads::switch_cpus0.data          139                       # Number of read requests responded to by this memory
system.physmem.num_reads::switch_cpus1.inst           27                       # Number of read requests responded to by this memory
system.physmem.num_reads::switch_cpus1.data          102                       # Number of read requests responded to by this memory
system.physmem.num_reads::switch_cpus2.inst           30                       # Number of read requests responded to by this memory
system.physmem.num_reads::switch_cpus2.data          280                       # Number of read requests responded to by this memory
system.physmem.num_reads::switch_cpus3.inst           13                       # Number of read requests responded to by this memory
system.physmem.num_reads::switch_cpus3.data          506                       # Number of read requests responded to by this memory
system.physmem.num_reads::switch_cpus4.inst           27                       # Number of read requests responded to by this memory
system.physmem.num_reads::switch_cpus4.data          113                       # Number of read requests responded to by this memory
system.physmem.num_reads::switch_cpus5.inst           13                       # Number of read requests responded to by this memory
system.physmem.num_reads::switch_cpus5.data          497                       # Number of read requests responded to by this memory
system.physmem.num_reads::switch_cpus6.inst           11                       # Number of read requests responded to by this memory
system.physmem.num_reads::switch_cpus6.data           92                       # Number of read requests responded to by this memory
system.physmem.num_reads::switch_cpus7.inst           11                       # Number of read requests responded to by this memory
system.physmem.num_reads::switch_cpus7.data           93                       # Number of read requests responded to by this memory
system.physmem.num_reads::total                  1978                       # Number of read requests responded to by this memory
system.physmem.num_writes::writebacks            1091                       # Number of write requests responded to by this memory
system.physmem.num_writes::functional               0                       # Number of write requests responded to by this memory
system.physmem.num_writes::interrupt                0                       # Number of write requests responded to by this memory
system.physmem.num_writes::switch_cpus0.dtb.walker            0                       # Number of write requests responded to by this memory
system.physmem.num_writes::switch_cpus0.itb.walker            0                       # Number of write requests responded to by this memory
system.physmem.num_writes::switch_cpus0.inst            0                       # Number of write requests responded to by this memory
system.physmem.num_writes::switch_cpus0.data            0                       # Number of write requests responded to by this memory
system.physmem.num_writes::switch_cpus1.dtb.walker            0                       # Number of write requests responded to by this memory
system.physmem.num_writes::switch_cpus1.itb.walker            0                       # Number of write requests responded to by this memory
system.physmem.num_writes::switch_cpus1.inst            0                       # Number of write requests responded to by this memory
system.physmem.num_writes::switch_cpus1.data            0                       # Number of write requests responded to by this memory
system.physmem.num_writes::switch_cpus2.dtb.walker            0                       # Number of write requests responded to by this memory
system.physmem.num_writes::switch_cpus2.itb.walker            0                       # Number of write requests responded to by this memory
system.physmem.num_writes::switch_cpus2.inst            0                       # Number of write requests responded to by this memory
system.physmem.num_writes::switch_cpus2.data            0                       # Number of write requests responded to by this memory
system.physmem.num_writes::switch_cpus3.dtb.walker            0                       # Number of write requests responded to by this memory
system.physmem.num_writes::switch_cpus3.itb.walker            0                       # Number of write requests responded to by this memory
system.physmem.num_writes::switch_cpus3.inst            0                       # Number of write requests responded to by this memory
system.physmem.num_writes::switch_cpus3.data            0                       # Number of write requests responded to by this memory
system.physmem.num_writes::switch_cpus4.dtb.walker            0                       # Number of write requests responded to by this memory
system.physmem.num_writes::switch_cpus4.itb.walker            0                       # Number of write requests responded to by this memory
system.physmem.num_writes::switch_cpus4.inst            0                       # Number of write requests responded to by this memory
system.physmem.num_writes::switch_cpus4.data            0                       # Number of write requests responded to by this memory
system.physmem.num_writes::switch_cpus5.dtb.walker            0                       # Number of write requests responded to by this memory
system.physmem.num_writes::switch_cpus5.itb.walker            0                       # Number of write requests responded to by this memory
system.physmem.num_writes::switch_cpus5.inst            0                       # Number of write requests responded to by this memory
system.physmem.num_writes::switch_cpus5.data            0                       # Number of write requests responded to by this memory
system.physmem.num_writes::switch_cpus6.dtb.walker            0                       # Number of write requests responded to by this memory
system.physmem.num_writes::switch_cpus6.itb.walker            0                       # Number of write requests responded to by this memory
system.physmem.num_writes::switch_cpus6.inst            0                       # Number of write requests responded to by this memory
system.physmem.num_writes::switch_cpus6.data            0                       # Number of write requests responded to by this memory
system.physmem.num_writes::switch_cpus7.dtb.walker            0                       # Number of write requests responded to by this memory
system.physmem.num_writes::switch_cpus7.itb.walker            0                       # Number of write requests responded to by this memory
system.physmem.num_writes::switch_cpus7.inst            0                       # Number of write requests responded to by this memory
system.physmem.num_writes::switch_cpus7.data            0                       # Number of write requests responded to by this memory
system.physmem.num_writes::cpu0.dtb.walker            0                       # Number of write requests responded to by this memory
system.physmem.num_writes::cpu0.itb.walker            0                       # Number of write requests responded to by this memory
system.physmem.num_writes::cpu0.inst                0                       # Number of write requests responded to by this memory
system.physmem.num_writes::cpu0.data                0                       # Number of write requests responded to by this memory
system.physmem.num_writes::cpu1.dtb.walker            0                       # Number of write requests responded to by this memory
system.physmem.num_writes::cpu1.itb.walker            0                       # Number of write requests responded to by this memory
system.physmem.num_writes::cpu1.inst                0                       # Number of write requests responded to by this memory
system.physmem.num_writes::cpu1.data                0                       # Number of write requests responded to by this memory
system.physmem.num_writes::cpu2.dtb.walker            0                       # Number of write requests responded to by this memory
system.physmem.num_writes::cpu2.itb.walker            0                       # Number of write requests responded to by this memory
system.physmem.num_writes::cpu2.inst                0                       # Number of write requests responded to by this memory
system.physmem.num_writes::cpu2.data                0                       # Number of write requests responded to by this memory
system.physmem.num_writes::cpu3.dtb.walker            0                       # Number of write requests responded to by this memory
system.physmem.num_writes::cpu3.itb.walker            0                       # Number of write requests responded to by this memory
system.physmem.num_writes::cpu3.inst                0                       # Number of write requests responded to by this memory
system.physmem.num_writes::cpu3.data                0                       # Number of write requests responded to by this memory
system.physmem.num_writes::cpu4.dtb.walker            0                       # Number of write requests responded to by this memory
system.physmem.num_writes::cpu4.itb.walker            0                       # Number of write requests responded to by this memory
system.physmem.num_writes::cpu4.inst                0                       # Number of write requests responded to by this memory
system.physmem.num_writes::cpu4.data                0                       # Number of write requests responded to by this memory
system.physmem.num_writes::cpu5.dtb.walker            0                       # Number of write requests responded to by this memory
system.physmem.num_writes::cpu5.itb.walker            0                       # Number of write requests responded to by this memory
system.physmem.num_writes::cpu5.inst                0                       # Number of write requests responded to by this memory
system.physmem.num_writes::cpu5.data                0                       # Number of write requests responded to by this memory
system.physmem.num_writes::cpu6.dtb.walker            0                       # Number of write requests responded to by this memory
system.physmem.num_writes::cpu6.itb.walker            0                       # Number of write requests responded to by this memory
system.physmem.num_writes::cpu6.inst                0                       # Number of write requests responded to by this memory
system.physmem.num_writes::cpu6.data                0                       # Number of write requests responded to by this memory
system.physmem.num_writes::cpu7.dtb.walker            0                       # Number of write requests responded to by this memory
system.physmem.num_writes::cpu7.itb.walker            0                       # Number of write requests responded to by this memory
system.physmem.num_writes::cpu7.inst                0                       # Number of write requests responded to by this memory
system.physmem.num_writes::cpu7.data                0                       # Number of write requests responded to by this memory
system.physmem.num_writes::total                 1091                       # Number of write requests responded to by this memory
system.physmem.bw_read::switch_cpus0.inst      2856177                       # Total read bandwidth from this memory (bytes/s)
system.physmem.bw_read::switch_cpus0.data     16542026                       # Total read bandwidth from this memory (bytes/s)
system.physmem.bw_read::switch_cpus1.inst      3213199                       # Total read bandwidth from this memory (bytes/s)
system.physmem.bw_read::switch_cpus1.data     12138753                       # Total read bandwidth from this memory (bytes/s)
system.physmem.bw_read::switch_cpus2.inst      3570222                       # Total read bandwidth from this memory (bytes/s)
system.physmem.bw_read::switch_cpus2.data     33322068                       # Total read bandwidth from this memory (bytes/s)
system.physmem.bw_read::switch_cpus3.inst      1547096                       # Total read bandwidth from this memory (bytes/s)
system.physmem.bw_read::switch_cpus3.data     60217736                       # Total read bandwidth from this memory (bytes/s)
system.physmem.bw_read::switch_cpus4.inst      3213199                       # Total read bandwidth from this memory (bytes/s)
system.physmem.bw_read::switch_cpus4.data     13447834                       # Total read bandwidth from this memory (bytes/s)
system.physmem.bw_read::switch_cpus5.inst      1547096                       # Total read bandwidth from this memory (bytes/s)
system.physmem.bw_read::switch_cpus5.data     59146670                       # Total read bandwidth from this memory (bytes/s)
system.physmem.bw_read::switch_cpus6.inst      1309081                       # Total read bandwidth from this memory (bytes/s)
system.physmem.bw_read::switch_cpus6.data     10948679                       # Total read bandwidth from this memory (bytes/s)
system.physmem.bw_read::switch_cpus7.inst      1309081                       # Total read bandwidth from this memory (bytes/s)
system.physmem.bw_read::switch_cpus7.data     11067687                       # Total read bandwidth from this memory (bytes/s)
system.physmem.bw_read::total               235396606                       # Total read bandwidth from this memory (bytes/s)
system.physmem.bw_inst_read::switch_cpus0.inst      2856177                       # Instruction read bandwidth from this memory (bytes/s)
system.physmem.bw_inst_read::switch_cpus1.inst      3213199                       # Instruction read bandwidth from this memory (bytes/s)
system.physmem.bw_inst_read::switch_cpus2.inst      3570222                       # Instruction read bandwidth from this memory (bytes/s)
system.physmem.bw_inst_read::switch_cpus3.inst      1547096                       # Instruction read bandwidth from this memory (bytes/s)
system.physmem.bw_inst_read::switch_cpus4.inst      3213199                       # Instruction read bandwidth from this memory (bytes/s)
system.physmem.bw_inst_read::switch_cpus5.inst      1547096                       # Instruction read bandwidth from this memory (bytes/s)
system.physmem.bw_inst_read::switch_cpus6.inst      1309081                       # Instruction read bandwidth from this memory (bytes/s)
system.physmem.bw_inst_read::switch_cpus7.inst      1309081                       # Instruction read bandwidth from this memory (bytes/s)
system.physmem.bw_inst_read::total           18565152                       # Instruction read bandwidth from this memory (bytes/s)
system.physmem.bw_write::writebacks         129837056                       # Write bandwidth from this memory (bytes/s)
system.physmem.bw_write::total              129837056                       # Write bandwidth from this memory (bytes/s)
system.physmem.bw_total::writebacks         129837056                       # Total bandwidth to/from this memory (bytes/s)
system.physmem.bw_total::switch_cpus0.inst      2856177                       # Total bandwidth to/from this memory (bytes/s)
system.physmem.bw_total::switch_cpus0.data     16542026                       # Total bandwidth to/from this memory (bytes/s)
system.physmem.bw_total::switch_cpus1.inst      3213199                       # Total bandwidth to/from this memory (bytes/s)
system.physmem.bw_total::switch_cpus1.data     12138753                       # Total bandwidth to/from this memory (bytes/s)
system.physmem.bw_total::switch_cpus2.inst      3570222                       # Total bandwidth to/from this memory (bytes/s)
system.physmem.bw_total::switch_cpus2.data     33322068                       # Total bandwidth to/from this memory (bytes/s)
system.physmem.bw_total::switch_cpus3.inst      1547096                       # Total bandwidth to/from this memory (bytes/s)
system.physmem.bw_total::switch_cpus3.data     60217736                       # Total bandwidth to/from this memory (bytes/s)
system.physmem.bw_total::switch_cpus4.inst      3213199                       # Total bandwidth to/from this memory (bytes/s)
system.physmem.bw_total::switch_cpus4.data     13447834                       # Total bandwidth to/from this memory (bytes/s)
system.physmem.bw_total::switch_cpus5.inst      1547096                       # Total bandwidth to/from this memory (bytes/s)
system.physmem.bw_total::switch_cpus5.data     59146670                       # Total bandwidth to/from this memory (bytes/s)
system.physmem.bw_total::switch_cpus6.inst      1309081                       # Total bandwidth to/from this memory (bytes/s)
system.physmem.bw_total::switch_cpus6.data     10948679                       # Total bandwidth to/from this memory (bytes/s)
system.physmem.bw_total::switch_cpus7.inst      1309081                       # Total bandwidth to/from this memory (bytes/s)
system.physmem.bw_total::switch_cpus7.data     11067687                       # Total bandwidth to/from this memory (bytes/s)
system.physmem.bw_total::total              365233661                       # Total bandwidth to/from this memory (bytes/s)
system.switch_cpus0.dtb.inst_hits                   0                       # ITB inst hits
system.switch_cpus0.dtb.inst_misses                 0                       # ITB inst misses
system.switch_cpus0.dtb.read_hits                   0                       # DTB read hits
system.switch_cpus0.dtb.read_misses                 0                       # DTB read misses
system.switch_cpus0.dtb.write_hits                  0                       # DTB write hits
system.switch_cpus0.dtb.write_misses                0                       # DTB write misses
system.switch_cpus0.dtb.flush_tlb                   0                       # Number of times complete TLB was flushed
system.switch_cpus0.dtb.flush_tlb_mva               0                       # Number of times TLB was flushed by MVA
system.switch_cpus0.dtb.flush_tlb_mva_asid            0                       # Number of times TLB was flushed by MVA & ASID
system.switch_cpus0.dtb.flush_tlb_asid              0                       # Number of times TLB was flushed by ASID
system.switch_cpus0.dtb.flush_entries               0                       # Number of entries that have been flushed from TLB
system.switch_cpus0.dtb.align_faults                0                       # Number of TLB faults due to alignment restrictions
system.switch_cpus0.dtb.prefetch_faults             0                       # Number of TLB faults due to prefetch
system.switch_cpus0.dtb.domain_faults               0                       # Number of TLB faults due to domain restrictions
system.switch_cpus0.dtb.perms_faults                0                       # Number of TLB faults due to permissions restrictions
system.switch_cpus0.dtb.read_accesses               0                       # DTB read accesses
system.switch_cpus0.dtb.write_accesses              0                       # DTB write accesses
system.switch_cpus0.dtb.inst_accesses               0                       # ITB inst accesses
system.switch_cpus0.dtb.hits                        0                       # DTB hits
system.switch_cpus0.dtb.misses                      0                       # DTB misses
system.switch_cpus0.dtb.accesses                    0                       # DTB accesses
system.switch_cpus0.itb.inst_hits                   0                       # ITB inst hits
system.switch_cpus0.itb.inst_misses                 0                       # ITB inst misses
system.switch_cpus0.itb.read_hits                   0                       # DTB read hits
system.switch_cpus0.itb.read_misses                 0                       # DTB read misses
system.switch_cpus0.itb.write_hits                  0                       # DTB write hits
system.switch_cpus0.itb.write_misses                0                       # DTB write misses
system.switch_cpus0.itb.flush_tlb                   0                       # Number of times complete TLB was flushed
system.switch_cpus0.itb.flush_tlb_mva               0                       # Number of times TLB was flushed by MVA
system.switch_cpus0.itb.flush_tlb_mva_asid            0                       # Number of times TLB was flushed by MVA & ASID
system.switch_cpus0.itb.flush_tlb_asid              0                       # Number of times TLB was flushed by ASID
system.switch_cpus0.itb.flush_entries               0                       # Number of entries that have been flushed from TLB
system.switch_cpus0.itb.align_faults                0                       # Number of TLB faults due to alignment restrictions
system.switch_cpus0.itb.prefetch_faults             0                       # Number of TLB faults due to prefetch
system.switch_cpus0.itb.domain_faults               0                       # Number of TLB faults due to domain restrictions
system.switch_cpus0.itb.perms_faults                0                       # Number of TLB faults due to permissions restrictions
system.switch_cpus0.itb.read_accesses               0                       # DTB read accesses
system.switch_cpus0.itb.write_accesses              0                       # DTB write accesses
system.switch_cpus0.itb.inst_accesses               0                       # ITB inst accesses
system.switch_cpus0.itb.hits                        0                       # DTB hits
system.switch_cpus0.itb.misses                      0                       # DTB misses
system.switch_cpus0.itb.accesses                    0                       # DTB accesses
system.cpu0.workload.num_syscalls                   1                       # Number of system calls
system.switch_cpus0.numCycles                 2579290                       # number of cpu cycles simulated
system.switch_cpus0.numWorkItemsStarted             0                       # number of work items this cpu started
system.switch_cpus0.numWorkItemsCompleted            0                       # number of work items this cpu completed
system.switch_cpus0.BPredUnit.lookups          210040                       # Number of BP lookups
system.switch_cpus0.BPredUnit.condPredicted       171918                       # Number of conditional branches predicted
system.switch_cpus0.BPredUnit.condIncorrect        22330                       # Number of conditional branches incorrect
system.switch_cpus0.BPredUnit.BTBLookups        86829                       # Number of BTB lookups
system.switch_cpus0.BPredUnit.BTBHits           79955                       # Number of BTB hits
system.switch_cpus0.BPredUnit.BTBCorrect            0                       # Number of correct BTB predictions (this stat may not work properly.
system.switch_cpus0.BPredUnit.usedRAS           21295                       # Number of times the RAS was used to get a target.
system.switch_cpus0.BPredUnit.RASInCorrect         1003                       # Number of incorrect RAS predictions.
system.switch_cpus0.fetch.icacheStallCycles      2008649                       # Number of cycles fetch is stalled on an Icache miss
system.switch_cpus0.fetch.Insts               1199231                       # Number of instructions fetch has processed
system.switch_cpus0.fetch.Branches             210040                       # Number of branches that fetch encountered
system.switch_cpus0.fetch.predictedBranches       101250                       # Number of branches that fetch has predicted taken
system.switch_cpus0.fetch.Cycles               262216                       # Number of cycles fetch has run and was not squashing or blocked
system.switch_cpus0.fetch.SquashCycles          64263                       # Number of cycles fetch has spent squashing
system.switch_cpus0.fetch.BlockedCycles         61464                       # Number of cycles fetch has spent blocked
system.switch_cpus0.fetch.CacheLines           125296                       # Number of cache lines fetched
system.switch_cpus0.fetch.IcacheSquashes        22051                       # Number of outstanding Icache misses that were squashed
system.switch_cpus0.fetch.rateDist::samples      2373883                       # Number of instructions fetched each cycle (Total)
system.switch_cpus0.fetch.rateDist::mean     0.618651                       # Number of instructions fetched each cycle (Total)
system.switch_cpus0.fetch.rateDist::stdev     1.974572                       # Number of instructions fetched each cycle (Total)
system.switch_cpus0.fetch.rateDist::underflows            0      0.00%      0.00% # Number of instructions fetched each cycle (Total)
system.switch_cpus0.fetch.rateDist::0         2111667     88.95%     88.95% # Number of instructions fetched each cycle (Total)
system.switch_cpus0.fetch.rateDist::1           27849      1.17%     90.13% # Number of instructions fetched each cycle (Total)
system.switch_cpus0.fetch.rateDist::2           32217      1.36%     91.48% # Number of instructions fetched each cycle (Total)
system.switch_cpus0.fetch.rateDist::3           17693      0.75%     92.23% # Number of instructions fetched each cycle (Total)
system.switch_cpus0.fetch.rateDist::4           20271      0.85%     93.08% # Number of instructions fetched each cycle (Total)
system.switch_cpus0.fetch.rateDist::5           11753      0.50%     93.58% # Number of instructions fetched each cycle (Total)
system.switch_cpus0.fetch.rateDist::6            7694      0.32%     93.90% # Number of instructions fetched each cycle (Total)
system.switch_cpus0.fetch.rateDist::7           20682      0.87%     94.77% # Number of instructions fetched each cycle (Total)
system.switch_cpus0.fetch.rateDist::8          124057      5.23%    100.00% # Number of instructions fetched each cycle (Total)
system.switch_cpus0.fetch.rateDist::overflows            0      0.00%    100.00% # Number of instructions fetched each cycle (Total)
system.switch_cpus0.fetch.rateDist::min_value            0                       # Number of instructions fetched each cycle (Total)
system.switch_cpus0.fetch.rateDist::max_value            8                       # Number of instructions fetched each cycle (Total)
system.switch_cpus0.fetch.rateDist::total      2373883                       # Number of instructions fetched each cycle (Total)
system.switch_cpus0.fetch.branchRate         0.081433                       # Number of branch fetches per cycle
system.switch_cpus0.fetch.rate               0.464946                       # Number of inst fetches per cycle
system.switch_cpus0.decode.IdleCycles         1991656                       # Number of cycles decode is idle
system.switch_cpus0.decode.BlockedCycles        79118                       # Number of cycles decode is blocked
system.switch_cpus0.decode.RunCycles           259867                       # Number of cycles decode is running
system.switch_cpus0.decode.UnblockCycles         2083                       # Number of cycles decode is unblocking
system.switch_cpus0.decode.SquashCycles         41155                       # Number of cycles decode is squashing
system.switch_cpus0.decode.BranchResolved        34177                       # Number of times decode resolved a branch
system.switch_cpus0.decode.BranchMispred          400                       # Number of times decode detected a branch misprediction
system.switch_cpus0.decode.DecodedInsts       1463383                       # Number of instructions handled by decode
system.switch_cpus0.decode.SquashedInsts         2186                       # Number of squashed instructions handled by decode
system.switch_cpus0.rename.SquashCycles         41155                       # Number of cycles rename is squashing
system.switch_cpus0.rename.IdleCycles         1995217                       # Number of cycles rename is idle
system.switch_cpus0.rename.BlockCycles          16296                       # Number of cycles rename is blocking
system.switch_cpus0.rename.serializeStallCycles        53682                       # count of cycles rename stalled for serializing inst
system.switch_cpus0.rename.RunCycles           258399                       # Number of cycles rename is running
system.switch_cpus0.rename.UnblockCycles         9130                       # Number of cycles rename is unblocking
system.switch_cpus0.rename.RenamedInsts       1461128                       # Number of instructions processed by rename
system.switch_cpus0.rename.ROBFullEvents            4                       # Number of times rename has blocked due to ROB full
system.switch_cpus0.rename.IQFullEvents          1989                       # Number of times rename has blocked due to IQ full
system.switch_cpus0.rename.LSQFullEvents         4502                       # Number of times rename has blocked due to LSQ full
system.switch_cpus0.rename.RenamedOperands      2031846                       # Number of destination operands rename has renamed
system.switch_cpus0.rename.RenameLookups      6801372                       # Number of register rename lookups that rename has made
system.switch_cpus0.rename.int_rename_lookups      6801372                       # Number of integer rename lookups
system.switch_cpus0.rename.CommittedMaps      1703093                       # Number of HB maps that are committed
system.switch_cpus0.rename.UndoneMaps          328740                       # Number of HB maps that are undone due to squashing
system.switch_cpus0.rename.serializingInsts          389                       # count of serializing insts renamed
system.switch_cpus0.rename.tempSerializingInsts          222                       # count of temporary serializing insts renamed
system.switch_cpus0.rename.skidInsts            26610                       # count of insts added to the skid buffer
system.switch_cpus0.memDep0.insertedLoads       140523                       # Number of loads inserted to the mem dependence unit.
system.switch_cpus0.memDep0.insertedStores        75464                       # Number of stores inserted to the mem dependence unit.
system.switch_cpus0.memDep0.conflictingLoads         1889                       # Number of conflicting loads.
system.switch_cpus0.memDep0.conflictingStores        15759                       # Number of conflicting stores.
system.switch_cpus0.iq.iqInstsAdded           1457156                       # Number of instructions added to the IQ (excludes non-spec)
system.switch_cpus0.iq.iqNonSpecInstsAdded          391                       # Number of non-speculative instructions added to the IQ
system.switch_cpus0.iq.iqInstsIssued          1367689                       # Number of instructions issued
system.switch_cpus0.iq.iqSquashedInstsIssued         1987                       # Number of squashed instructions issued
system.switch_cpus0.iq.iqSquashedInstsExamined       200604                       # Number of squashed instructions iterated over during squash; mainly for profiling
system.switch_cpus0.iq.iqSquashedOperandsExamined       469963                       # Number of squashed operands that are examined and possibly removed from graph
system.switch_cpus0.iq.iqSquashedNonSpecRemoved           54                       # Number of squashed non-spec instructions that were removed
system.switch_cpus0.iq.issued_per_cycle::samples      2373883                       # Number of insts issued each cycle
system.switch_cpus0.iq.issued_per_cycle::mean     0.576140                       # Number of insts issued each cycle
system.switch_cpus0.iq.issued_per_cycle::stdev     1.267207                       # Number of insts issued each cycle
system.switch_cpus0.iq.issued_per_cycle::underflows            0      0.00%      0.00% # Number of insts issued each cycle
system.switch_cpus0.iq.issued_per_cycle::0      1798428     75.76%     75.76% # Number of insts issued each cycle
system.switch_cpus0.iq.issued_per_cycle::1       230914      9.73%     85.49% # Number of insts issued each cycle
system.switch_cpus0.iq.issued_per_cycle::2       124583      5.25%     90.73% # Number of insts issued each cycle
system.switch_cpus0.iq.issued_per_cycle::3        86030      3.62%     94.36% # Number of insts issued each cycle
system.switch_cpus0.iq.issued_per_cycle::4        75184      3.17%     97.53% # Number of insts issued each cycle
system.switch_cpus0.iq.issued_per_cycle::5        38808      1.63%     99.16% # Number of insts issued each cycle
system.switch_cpus0.iq.issued_per_cycle::6         9303      0.39%     99.55% # Number of insts issued each cycle
system.switch_cpus0.iq.issued_per_cycle::7         6139      0.26%     99.81% # Number of insts issued each cycle
system.switch_cpus0.iq.issued_per_cycle::8         4494      0.19%    100.00% # Number of insts issued each cycle
system.switch_cpus0.iq.issued_per_cycle::overflows            0      0.00%    100.00% # Number of insts issued each cycle
system.switch_cpus0.iq.issued_per_cycle::min_value            0                       # Number of insts issued each cycle
system.switch_cpus0.iq.issued_per_cycle::max_value            8                       # Number of insts issued each cycle
system.switch_cpus0.iq.issued_per_cycle::total      2373883                       # Number of insts issued each cycle
system.switch_cpus0.iq.fu_full::No_OpClass            0      0.00%      0.00% # attempts to use FU when none available
system.switch_cpus0.iq.fu_full::IntAlu            347     11.48%     11.48% # attempts to use FU when none available
system.switch_cpus0.iq.fu_full::IntMult             0      0.00%     11.48% # attempts to use FU when none available
system.switch_cpus0.iq.fu_full::IntDiv              0      0.00%     11.48% # attempts to use FU when none available
system.switch_cpus0.iq.fu_full::FloatAdd            0      0.00%     11.48% # attempts to use FU when none available
system.switch_cpus0.iq.fu_full::FloatCmp            0      0.00%     11.48% # attempts to use FU when none available
system.switch_cpus0.iq.fu_full::FloatCvt            0      0.00%     11.48% # attempts to use FU when none available
system.switch_cpus0.iq.fu_full::FloatMult            0      0.00%     11.48% # attempts to use FU when none available
system.switch_cpus0.iq.fu_full::FloatDiv            0      0.00%     11.48% # attempts to use FU when none available
system.switch_cpus0.iq.fu_full::FloatSqrt            0      0.00%     11.48% # attempts to use FU when none available
system.switch_cpus0.iq.fu_full::SimdAdd             0      0.00%     11.48% # attempts to use FU when none available
system.switch_cpus0.iq.fu_full::SimdAddAcc            0      0.00%     11.48% # attempts to use FU when none available
system.switch_cpus0.iq.fu_full::SimdAlu             0      0.00%     11.48% # attempts to use FU when none available
system.switch_cpus0.iq.fu_full::SimdCmp             0      0.00%     11.48% # attempts to use FU when none available
system.switch_cpus0.iq.fu_full::SimdCvt             0      0.00%     11.48% # attempts to use FU when none available
system.switch_cpus0.iq.fu_full::SimdMisc            0      0.00%     11.48% # attempts to use FU when none available
system.switch_cpus0.iq.fu_full::SimdMult            0      0.00%     11.48% # attempts to use FU when none available
system.switch_cpus0.iq.fu_full::SimdMultAcc            0      0.00%     11.48% # attempts to use FU when none available
system.switch_cpus0.iq.fu_full::SimdShift            0      0.00%     11.48% # attempts to use FU when none available
system.switch_cpus0.iq.fu_full::SimdShiftAcc            0      0.00%     11.48% # attempts to use FU when none available
system.switch_cpus0.iq.fu_full::SimdSqrt            0      0.00%     11.48% # attempts to use FU when none available
system.switch_cpus0.iq.fu_full::SimdFloatAdd            0      0.00%     11.48% # attempts to use FU when none available
system.switch_cpus0.iq.fu_full::SimdFloatAlu            0      0.00%     11.48% # attempts to use FU when none available
system.switch_cpus0.iq.fu_full::SimdFloatCmp            0      0.00%     11.48% # attempts to use FU when none available
system.switch_cpus0.iq.fu_full::SimdFloatCvt            0      0.00%     11.48% # attempts to use FU when none available
system.switch_cpus0.iq.fu_full::SimdFloatDiv            0      0.00%     11.48% # attempts to use FU when none available
system.switch_cpus0.iq.fu_full::SimdFloatMisc            0      0.00%     11.48% # attempts to use FU when none available
system.switch_cpus0.iq.fu_full::SimdFloatMult            0      0.00%     11.48% # attempts to use FU when none available
system.switch_cpus0.iq.fu_full::SimdFloatMultAcc            0      0.00%     11.48% # attempts to use FU when none available
system.switch_cpus0.iq.fu_full::SimdFloatSqrt            0      0.00%     11.48% # attempts to use FU when none available
system.switch_cpus0.iq.fu_full::MemRead          1329     43.98%     55.46% # attempts to use FU when none available
system.switch_cpus0.iq.fu_full::MemWrite         1346     44.54%    100.00% # attempts to use FU when none available
system.switch_cpus0.iq.fu_full::IprAccess            0      0.00%    100.00% # attempts to use FU when none available
system.switch_cpus0.iq.fu_full::InstPrefetch            0      0.00%    100.00% # attempts to use FU when none available
system.switch_cpus0.iq.FU_type_0::No_OpClass            0      0.00%      0.00% # Type of FU issued
system.switch_cpus0.iq.FU_type_0::IntAlu      1144877     83.71%     83.71% # Type of FU issued
system.switch_cpus0.iq.FU_type_0::IntMult        21313      1.56%     85.27% # Type of FU issued
system.switch_cpus0.iq.FU_type_0::IntDiv            0      0.00%     85.27% # Type of FU issued
system.switch_cpus0.iq.FU_type_0::FloatAdd            0      0.00%     85.27% # Type of FU issued
system.switch_cpus0.iq.FU_type_0::FloatCmp            0      0.00%     85.27% # Type of FU issued
system.switch_cpus0.iq.FU_type_0::FloatCvt            0      0.00%     85.27% # Type of FU issued
system.switch_cpus0.iq.FU_type_0::FloatMult            0      0.00%     85.27% # Type of FU issued
system.switch_cpus0.iq.FU_type_0::FloatDiv            0      0.00%     85.27% # Type of FU issued
system.switch_cpus0.iq.FU_type_0::FloatSqrt            0      0.00%     85.27% # Type of FU issued
system.switch_cpus0.iq.FU_type_0::SimdAdd            0      0.00%     85.27% # Type of FU issued
system.switch_cpus0.iq.FU_type_0::SimdAddAcc            0      0.00%     85.27% # Type of FU issued
system.switch_cpus0.iq.FU_type_0::SimdAlu            0      0.00%     85.27% # Type of FU issued
system.switch_cpus0.iq.FU_type_0::SimdCmp            0      0.00%     85.27% # Type of FU issued
system.switch_cpus0.iq.FU_type_0::SimdCvt            0      0.00%     85.27% # Type of FU issued
system.switch_cpus0.iq.FU_type_0::SimdMisc            0      0.00%     85.27% # Type of FU issued
system.switch_cpus0.iq.FU_type_0::SimdMult            0      0.00%     85.27% # Type of FU issued
system.switch_cpus0.iq.FU_type_0::SimdMultAcc            0      0.00%     85.27% # Type of FU issued
system.switch_cpus0.iq.FU_type_0::SimdShift            0      0.00%     85.27% # Type of FU issued
system.switch_cpus0.iq.FU_type_0::SimdShiftAcc            0      0.00%     85.27% # Type of FU issued
system.switch_cpus0.iq.FU_type_0::SimdSqrt            0      0.00%     85.27% # Type of FU issued
system.switch_cpus0.iq.FU_type_0::SimdFloatAdd            0      0.00%     85.27% # Type of FU issued
system.switch_cpus0.iq.FU_type_0::SimdFloatAlu            0      0.00%     85.27% # Type of FU issued
system.switch_cpus0.iq.FU_type_0::SimdFloatCmp            0      0.00%     85.27% # Type of FU issued
system.switch_cpus0.iq.FU_type_0::SimdFloatCvt            0      0.00%     85.27% # Type of FU issued
system.switch_cpus0.iq.FU_type_0::SimdFloatDiv            0      0.00%     85.27% # Type of FU issued
system.switch_cpus0.iq.FU_type_0::SimdFloatMisc          166      0.01%     85.28% # Type of FU issued
system.switch_cpus0.iq.FU_type_0::SimdFloatMult            0      0.00%     85.28% # Type of FU issued
system.switch_cpus0.iq.FU_type_0::SimdFloatMultAcc            0      0.00%     85.28% # Type of FU issued
system.switch_cpus0.iq.FU_type_0::SimdFloatSqrt            0      0.00%     85.28% # Type of FU issued
system.switch_cpus0.iq.FU_type_0::MemRead       126659      9.26%     94.54% # Type of FU issued
system.switch_cpus0.iq.FU_type_0::MemWrite        74674      5.46%    100.00% # Type of FU issued
system.switch_cpus0.iq.FU_type_0::IprAccess            0      0.00%    100.00% # Type of FU issued
system.switch_cpus0.iq.FU_type_0::InstPrefetch            0      0.00%    100.00% # Type of FU issued
system.switch_cpus0.iq.FU_type_0::total       1367689                       # Type of FU issued
system.switch_cpus0.iq.rate                  0.530258                       # Inst issue rate
system.switch_cpus0.iq.fu_busy_cnt               3022                       # FU busy when requested
system.switch_cpus0.iq.fu_busy_rate          0.002210                       # FU busy rate (busy events/executed inst)
system.switch_cpus0.iq.int_inst_queue_reads      5114269                       # Number of integer instruction queue reads
system.switch_cpus0.iq.int_inst_queue_writes      1658195                       # Number of integer instruction queue writes
system.switch_cpus0.iq.int_inst_queue_wakeup_accesses      1342905                       # Number of integer instruction queue wakeup accesses
system.switch_cpus0.iq.fp_inst_queue_reads            0                       # Number of floating instruction queue reads
system.switch_cpus0.iq.fp_inst_queue_writes            0                       # Number of floating instruction queue writes
system.switch_cpus0.iq.fp_inst_queue_wakeup_accesses            0                       # Number of floating instruction queue wakeup accesses
system.switch_cpus0.iq.int_alu_accesses       1370711                       # Number of integer alu accesses
system.switch_cpus0.iq.fp_alu_accesses              0                       # Number of floating point alu accesses
system.switch_cpus0.iew.lsq.thread0.forwLoads         3466                       # Number of loads that had data forwarded from stores
system.switch_cpus0.iew.lsq.thread0.invAddrLoads            0                       # Number of loads ignored due to an invalid address
system.switch_cpus0.iew.lsq.thread0.squashedLoads        27642                       # Number of loads squashed
system.switch_cpus0.iew.lsq.thread0.ignoredResponses            7                       # Number of memory responses ignored because the instruction is squashed
system.switch_cpus0.iew.lsq.thread0.memOrderViolation           45                       # Number of memory ordering violations
system.switch_cpus0.iew.lsq.thread0.squashedStores         2398                       # Number of stores squashed
system.switch_cpus0.iew.lsq.thread0.invAddrSwpfs            0                       # Number of software prefetches ignored due to an invalid address
system.switch_cpus0.iew.lsq.thread0.blockedLoads            0                       # Number of blocked loads due to partial load-store forwarding
system.switch_cpus0.iew.lsq.thread0.rescheduledLoads           83                       # Number of loads that were rescheduled
system.switch_cpus0.iew.lsq.thread0.cacheBlocked            0                       # Number of times an access to memory failed due to the cache being blocked
system.switch_cpus0.iew.iewIdleCycles               0                       # Number of cycles IEW is idle
system.switch_cpus0.iew.iewSquashCycles         41155                       # Number of cycles IEW is squashing
system.switch_cpus0.iew.iewBlockCycles          11320                       # Number of cycles IEW is blocking
system.switch_cpus0.iew.iewUnblockCycles         1241                       # Number of cycles IEW is unblocking
system.switch_cpus0.iew.iewDispatchedInsts      1457555                       # Number of instructions dispatched to IQ
system.switch_cpus0.iew.iewDispSquashedInsts           17                       # Number of squashed instructions skipped by dispatch
system.switch_cpus0.iew.iewDispLoadInsts       140523                       # Number of dispatched load instructions
system.switch_cpus0.iew.iewDispStoreInsts        75464                       # Number of dispatched store instructions
system.switch_cpus0.iew.iewDispNonSpecInsts          223                       # Number of dispatched non-speculative instructions
system.switch_cpus0.iew.iewIQFullEvents           885                       # Number of times the IQ has become full, causing a stall
system.switch_cpus0.iew.iewLSQFullEvents            0                       # Number of times the LSQ has become full, causing a stall
system.switch_cpus0.iew.memOrderViolationEvents           45                       # Number of memory order violations
system.switch_cpus0.iew.predictedTakenIncorrect        12198                       # Number of branches that were predicted taken incorrectly
system.switch_cpus0.iew.predictedNotTakenIncorrect        13085                       # Number of branches that were predicted not taken incorrectly
system.switch_cpus0.iew.branchMispredicts        25283                       # Number of branch mispredicts detected at execute
system.switch_cpus0.iew.iewExecutedInsts      1345939                       # Number of executed instructions
system.switch_cpus0.iew.iewExecLoadInsts       118653                       # Number of load instructions executed
system.switch_cpus0.iew.iewExecSquashedInsts        21749                       # Number of squashed instructions skipped in execute
system.switch_cpus0.iew.exec_swp                    0                       # number of swp insts executed
system.switch_cpus0.iew.exec_nop                    8                       # number of nop insts executed
system.switch_cpus0.iew.exec_refs              193278                       # number of memory reference insts executed
system.switch_cpus0.iew.exec_branches          187700                       # Number of branches executed
system.switch_cpus0.iew.exec_stores             74625                       # Number of stores executed
system.switch_cpus0.iew.exec_rate            0.521825                       # Inst execution rate
system.switch_cpus0.iew.wb_sent               1342995                       # cumulative count of insts sent to commit
system.switch_cpus0.iew.wb_count              1342905                       # cumulative count of insts written-back
system.switch_cpus0.iew.wb_producers           798892                       # num instructions producing a value
system.switch_cpus0.iew.wb_consumers          2092376                       # num instructions consuming a value
system.switch_cpus0.iew.wb_penalized                0                       # number of instrctions required to write to 'other' IQ
system.switch_cpus0.iew.wb_rate              0.520649                       # insts written-back per cycle
system.switch_cpus0.iew.wb_fanout            0.381811                       # average fanout of values written-back
system.switch_cpus0.iew.wb_penalized_rate            0                       # fraction of instructions written-back that wrote to 'other' IQ
system.switch_cpus0.commit.commitCommittedInsts      1000002                       # The number of committed instructions
system.switch_cpus0.commit.commitCommittedOps      1226889                       # The number of committed instructions
system.switch_cpus0.commit.commitSquashedInsts       230673                       # The number of squashed insts skipped by commit
system.switch_cpus0.commit.commitNonSpecStalls          337                       # The number of times commit has been forced to stall to communicate backwards
system.switch_cpus0.commit.branchMispredicts        22279                       # The number of times a branch was mispredicted
system.switch_cpus0.commit.committed_per_cycle::samples      2332728                       # Number of insts commited each cycle
system.switch_cpus0.commit.committed_per_cycle::mean     0.525946                       # Number of insts commited each cycle
system.switch_cpus0.commit.committed_per_cycle::stdev     1.344497                       # Number of insts commited each cycle
system.switch_cpus0.commit.committed_per_cycle::underflows            0      0.00%      0.00% # Number of insts commited each cycle
system.switch_cpus0.commit.committed_per_cycle::0      1831399     78.51%     78.51% # Number of insts commited each cycle
system.switch_cpus0.commit.committed_per_cycle::1       232697      9.98%     88.48% # Number of insts commited each cycle
system.switch_cpus0.commit.committed_per_cycle::2        97421      4.18%     92.66% # Number of insts commited each cycle
system.switch_cpus0.commit.committed_per_cycle::3        58534      2.51%     95.17% # Number of insts commited each cycle
system.switch_cpus0.commit.committed_per_cycle::4        40100      1.72%     96.89% # Number of insts commited each cycle
system.switch_cpus0.commit.committed_per_cycle::5        26312      1.13%     98.02% # Number of insts commited each cycle
system.switch_cpus0.commit.committed_per_cycle::6        13757      0.59%     98.61% # Number of insts commited each cycle
system.switch_cpus0.commit.committed_per_cycle::7        10818      0.46%     99.07% # Number of insts commited each cycle
system.switch_cpus0.commit.committed_per_cycle::8        21690      0.93%    100.00% # Number of insts commited each cycle
system.switch_cpus0.commit.committed_per_cycle::overflows            0      0.00%    100.00% # Number of insts commited each cycle
system.switch_cpus0.commit.committed_per_cycle::min_value            0                       # Number of insts commited each cycle
system.switch_cpus0.commit.committed_per_cycle::max_value            8                       # Number of insts commited each cycle
system.switch_cpus0.commit.committed_per_cycle::total      2332728                       # Number of insts commited each cycle
system.switch_cpus0.commit.committedInsts      1000002                       # Number of instructions committed
system.switch_cpus0.commit.committedOps       1226889                       # Number of ops (including micro ops) committed
system.switch_cpus0.commit.swp_count                0                       # Number of s/w prefetches committed
system.switch_cpus0.commit.refs                185944                       # Number of memory references committed
system.switch_cpus0.commit.loads               112879                       # Number of loads committed
system.switch_cpus0.commit.membars                168                       # Number of memory barriers committed
system.switch_cpus0.commit.branches            175550                       # Number of branches committed
system.switch_cpus0.commit.fp_insts                 0                       # Number of committed floating point instructions.
system.switch_cpus0.commit.int_insts          1106121                       # Number of committed integer instructions.
system.switch_cpus0.commit.function_calls        24959                       # Number of function calls committed.
system.switch_cpus0.commit.bw_lim_events        21690                       # number cycles where commit BW limit reached
system.switch_cpus0.commit.bw_limited               0                       # number of insts not committed due to BW limits
system.switch_cpus0.rob.rob_reads             3768587                       # The number of ROB reads
system.switch_cpus0.rob.rob_writes            2956298                       # The number of ROB writes
system.switch_cpus0.timesIdled                  32796                       # Number of times that the entire CPU went into an idle state and unscheduled itself
system.switch_cpus0.idleCycles                 205407                       # Total number of cycles that the CPU has spent unscheduled due to idling
system.switch_cpus0.committedInsts            1000002                       # Number of Instructions Simulated
system.switch_cpus0.committedOps              1226889                       # Number of Ops (including micro ops) Simulated
system.switch_cpus0.committedInsts_total      1000002                       # Number of Instructions Simulated
system.switch_cpus0.cpi                      2.579285                       # CPI: Cycles Per Instruction
system.switch_cpus0.cpi_total                2.579285                       # CPI: Total CPI of All Threads
system.switch_cpus0.ipc                      0.387704                       # IPC: Instructions Per Cycle
system.switch_cpus0.ipc_total                0.387704                       # IPC: Total IPC of All Threads
system.switch_cpus0.int_regfile_reads         6069500                       # number of integer regfile reads
system.switch_cpus0.int_regfile_writes        1865922                       # number of integer regfile writes
system.switch_cpus0.misc_regfile_reads        1364250                       # number of misc regfile reads
system.switch_cpus0.misc_regfile_writes           336                       # number of misc regfile writes
system.switch_cpus1.dtb.inst_hits                   0                       # ITB inst hits
system.switch_cpus1.dtb.inst_misses                 0                       # ITB inst misses
system.switch_cpus1.dtb.read_hits                   0                       # DTB read hits
system.switch_cpus1.dtb.read_misses                 0                       # DTB read misses
system.switch_cpus1.dtb.write_hits                  0                       # DTB write hits
system.switch_cpus1.dtb.write_misses                0                       # DTB write misses
system.switch_cpus1.dtb.flush_tlb                   0                       # Number of times complete TLB was flushed
system.switch_cpus1.dtb.flush_tlb_mva               0                       # Number of times TLB was flushed by MVA
system.switch_cpus1.dtb.flush_tlb_mva_asid            0                       # Number of times TLB was flushed by MVA & ASID
system.switch_cpus1.dtb.flush_tlb_asid              0                       # Number of times TLB was flushed by ASID
system.switch_cpus1.dtb.flush_entries               0                       # Number of entries that have been flushed from TLB
system.switch_cpus1.dtb.align_faults                0                       # Number of TLB faults due to alignment restrictions
system.switch_cpus1.dtb.prefetch_faults             0                       # Number of TLB faults due to prefetch
system.switch_cpus1.dtb.domain_faults               0                       # Number of TLB faults due to domain restrictions
system.switch_cpus1.dtb.perms_faults                0                       # Number of TLB faults due to permissions restrictions
system.switch_cpus1.dtb.read_accesses               0                       # DTB read accesses
system.switch_cpus1.dtb.write_accesses              0                       # DTB write accesses
system.switch_cpus1.dtb.inst_accesses               0                       # ITB inst accesses
system.switch_cpus1.dtb.hits                        0                       # DTB hits
system.switch_cpus1.dtb.misses                      0                       # DTB misses
system.switch_cpus1.dtb.accesses                    0                       # DTB accesses
system.switch_cpus1.itb.inst_hits                   0                       # ITB inst hits
system.switch_cpus1.itb.inst_misses                 0                       # ITB inst misses
system.switch_cpus1.itb.read_hits                   0                       # DTB read hits
system.switch_cpus1.itb.read_misses                 0                       # DTB read misses
system.switch_cpus1.itb.write_hits                  0                       # DTB write hits
system.switch_cpus1.itb.write_misses                0                       # DTB write misses
system.switch_cpus1.itb.flush_tlb                   0                       # Number of times complete TLB was flushed
system.switch_cpus1.itb.flush_tlb_mva               0                       # Number of times TLB was flushed by MVA
system.switch_cpus1.itb.flush_tlb_mva_asid            0                       # Number of times TLB was flushed by MVA & ASID
system.switch_cpus1.itb.flush_tlb_asid              0                       # Number of times TLB was flushed by ASID
system.switch_cpus1.itb.flush_entries               0                       # Number of entries that have been flushed from TLB
system.switch_cpus1.itb.align_faults                0                       # Number of TLB faults due to alignment restrictions
system.switch_cpus1.itb.prefetch_faults             0                       # Number of TLB faults due to prefetch
system.switch_cpus1.itb.domain_faults               0                       # Number of TLB faults due to domain restrictions
system.switch_cpus1.itb.perms_faults                0                       # Number of TLB faults due to permissions restrictions
system.switch_cpus1.itb.read_accesses               0                       # DTB read accesses
system.switch_cpus1.itb.write_accesses              0                       # DTB write accesses
system.switch_cpus1.itb.inst_accesses               0                       # ITB inst accesses
system.switch_cpus1.itb.hits                        0                       # DTB hits
system.switch_cpus1.itb.misses                      0                       # DTB misses
system.switch_cpus1.itb.accesses                    0                       # DTB accesses
system.cpu1.workload.num_syscalls                   1                       # Number of system calls
system.switch_cpus1.numCycles                 2579290                       # number of cpu cycles simulated
system.switch_cpus1.numWorkItemsStarted             0                       # number of work items this cpu started
system.switch_cpus1.numWorkItemsCompleted            0                       # number of work items this cpu completed
system.switch_cpus1.BPredUnit.lookups          213631                       # Number of BP lookups
system.switch_cpus1.BPredUnit.condPredicted       174874                       # Number of conditional branches predicted
system.switch_cpus1.BPredUnit.condIncorrect        22588                       # Number of conditional branches incorrect
system.switch_cpus1.BPredUnit.BTBLookups        87020                       # Number of BTB lookups
system.switch_cpus1.BPredUnit.BTBHits           82065                       # Number of BTB hits
system.switch_cpus1.BPredUnit.BTBCorrect            0                       # Number of correct BTB predictions (this stat may not work properly.
system.switch_cpus1.BPredUnit.usedRAS           21527                       # Number of times the RAS was used to get a target.
system.switch_cpus1.BPredUnit.RASInCorrect         1036                       # Number of incorrect RAS predictions.
system.switch_cpus1.fetch.icacheStallCycles      2050743                       # Number of cycles fetch is stalled on an Icache miss
system.switch_cpus1.fetch.Insts               1194991                       # Number of instructions fetch has processed
system.switch_cpus1.fetch.Branches             213631                       # Number of branches that fetch encountered
system.switch_cpus1.fetch.predictedBranches       103592                       # Number of branches that fetch has predicted taken
system.switch_cpus1.fetch.Cycles               248287                       # Number of cycles fetch has run and was not squashing or blocked
system.switch_cpus1.fetch.SquashCycles          62317                       # Number of cycles fetch has spent squashing
system.switch_cpus1.fetch.BlockedCycles         41395                       # Number of cycles fetch has spent blocked
system.switch_cpus1.fetch.CacheLines           126986                       # Number of cache lines fetched
system.switch_cpus1.fetch.IcacheSquashes        22432                       # Number of outstanding Icache misses that were squashed
system.switch_cpus1.fetch.rateDist::samples      2379873                       # Number of instructions fetched each cycle (Total)
system.switch_cpus1.fetch.rateDist::mean     0.616805                       # Number of instructions fetched each cycle (Total)
system.switch_cpus1.fetch.rateDist::stdev     1.963922                       # Number of instructions fetched each cycle (Total)
system.switch_cpus1.fetch.rateDist::underflows            0      0.00%      0.00% # Number of instructions fetched each cycle (Total)
system.switch_cpus1.fetch.rateDist::0         2131586     89.57%     89.57% # Number of instructions fetched each cycle (Total)
system.switch_cpus1.fetch.rateDist::1           11507      0.48%     90.05% # Number of instructions fetched each cycle (Total)
system.switch_cpus1.fetch.rateDist::2           18121      0.76%     90.81% # Number of instructions fetched each cycle (Total)
system.switch_cpus1.fetch.rateDist::3           24204      1.02%     91.83% # Number of instructions fetched each cycle (Total)
system.switch_cpus1.fetch.rateDist::4           25530      1.07%     92.90% # Number of instructions fetched each cycle (Total)
system.switch_cpus1.fetch.rateDist::5           21539      0.91%     93.81% # Number of instructions fetched each cycle (Total)
system.switch_cpus1.fetch.rateDist::6           11633      0.49%     94.30% # Number of instructions fetched each cycle (Total)
system.switch_cpus1.fetch.rateDist::7           18080      0.76%     95.06% # Number of instructions fetched each cycle (Total)
system.switch_cpus1.fetch.rateDist::8          117673      4.94%    100.00% # Number of instructions fetched each cycle (Total)
system.switch_cpus1.fetch.rateDist::overflows            0      0.00%    100.00% # Number of instructions fetched each cycle (Total)
system.switch_cpus1.fetch.rateDist::min_value            0                       # Number of instructions fetched each cycle (Total)
system.switch_cpus1.fetch.rateDist::max_value            8                       # Number of instructions fetched each cycle (Total)
system.switch_cpus1.fetch.rateDist::total      2379873                       # Number of instructions fetched each cycle (Total)
system.switch_cpus1.fetch.branchRate         0.082826                       # Number of branch fetches per cycle
system.switch_cpus1.fetch.rate               0.463302                       # Number of inst fetches per cycle
system.switch_cpus1.decode.IdleCycles         2030216                       # Number of cycles decode is idle
system.switch_cpus1.decode.BlockedCycles        62389                       # Number of cycles decode is blocked
system.switch_cpus1.decode.RunCycles           247651                       # Number of cycles decode is running
system.switch_cpus1.decode.UnblockCycles          371                       # Number of cycles decode is unblocking
system.switch_cpus1.decode.SquashCycles         39239                       # Number of cycles decode is squashing
system.switch_cpus1.decode.BranchResolved        34893                       # Number of times decode resolved a branch
system.switch_cpus1.decode.BranchMispred          211                       # Number of times decode detected a branch misprediction
system.switch_cpus1.decode.DecodedInsts       1464416                       # Number of instructions handled by decode
system.switch_cpus1.decode.SquashedInsts         1279                       # Number of squashed instructions handled by decode
system.switch_cpus1.rename.SquashCycles         39239                       # Number of cycles rename is squashing
system.switch_cpus1.rename.IdleCycles         2036131                       # Number of cycles rename is idle
system.switch_cpus1.rename.BlockCycles          12511                       # Number of cycles rename is blocking
system.switch_cpus1.rename.serializeStallCycles        36918                       # count of cycles rename stalled for serializing inst
system.switch_cpus1.rename.RunCycles           242113                       # Number of cycles rename is running
system.switch_cpus1.rename.UnblockCycles        12952                       # Number of cycles rename is unblocking
system.switch_cpus1.rename.RenamedInsts       1463080                       # Number of instructions processed by rename
system.switch_cpus1.rename.ROBFullEvents            4                       # Number of times rename has blocked due to ROB full
system.switch_cpus1.rename.IQFullEvents          1635                       # Number of times rename has blocked due to IQ full
system.switch_cpus1.rename.LSQFullEvents         5741                       # Number of times rename has blocked due to LSQ full
system.switch_cpus1.rename.RenamedOperands      2042243                       # Number of destination operands rename has renamed
system.switch_cpus1.rename.RenameLookups      6802640                       # Number of register rename lookups that rename has made
system.switch_cpus1.rename.int_rename_lookups      6802640                       # Number of integer rename lookups
system.switch_cpus1.rename.CommittedMaps      1741371                       # Number of HB maps that are committed
system.switch_cpus1.rename.UndoneMaps          300849                       # Number of HB maps that are undone due to squashing
system.switch_cpus1.rename.serializingInsts          351                       # count of serializing insts renamed
system.switch_cpus1.rename.tempSerializingInsts          180                       # count of temporary serializing insts renamed
system.switch_cpus1.rename.skidInsts            40539                       # count of insts added to the skid buffer
system.switch_cpus1.memDep0.insertedLoads       137700                       # Number of loads inserted to the mem dependence unit.
system.switch_cpus1.memDep0.insertedStores        73491                       # Number of stores inserted to the mem dependence unit.
system.switch_cpus1.memDep0.conflictingLoads          832                       # Number of conflicting loads.
system.switch_cpus1.memDep0.conflictingStores        17890                       # Number of conflicting stores.
system.switch_cpus1.iq.iqInstsAdded           1460265                       # Number of instructions added to the IQ (excludes non-spec)
system.switch_cpus1.iq.iqNonSpecInstsAdded          352                       # Number of non-speculative instructions added to the IQ
system.switch_cpus1.iq.iqInstsIssued          1378100                       # Number of instructions issued
system.switch_cpus1.iq.iqSquashedInstsIssued          293                       # Number of squashed instructions issued
system.switch_cpus1.iq.iqSquashedInstsExamined       177363                       # Number of squashed instructions iterated over during squash; mainly for profiling
system.switch_cpus1.iq.iqSquashedOperandsExamined       429487                       # Number of squashed operands that are examined and possibly removed from graph
system.switch_cpus1.iq.iqSquashedNonSpecRemoved            7                       # Number of squashed non-spec instructions that were removed
system.switch_cpus1.iq.issued_per_cycle::samples      2379873                       # Number of insts issued each cycle
system.switch_cpus1.iq.issued_per_cycle::mean     0.579065                       # Number of insts issued each cycle
system.switch_cpus1.iq.issued_per_cycle::stdev     1.270949                       # Number of insts issued each cycle
system.switch_cpus1.iq.issued_per_cycle::underflows            0      0.00%      0.00% # Number of insts issued each cycle
system.switch_cpus1.iq.issued_per_cycle::0      1797168     75.52%     75.52% # Number of insts issued each cycle
system.switch_cpus1.iq.issued_per_cycle::1       239214     10.05%     85.57% # Number of insts issued each cycle
system.switch_cpus1.iq.issued_per_cycle::2       121472      5.10%     90.67% # Number of insts issued each cycle
system.switch_cpus1.iq.issued_per_cycle::3        91933      3.86%     94.53% # Number of insts issued each cycle
system.switch_cpus1.iq.issued_per_cycle::4        71850      3.02%     97.55% # Number of insts issued each cycle
system.switch_cpus1.iq.issued_per_cycle::5        28866      1.21%     98.77% # Number of insts issued each cycle
system.switch_cpus1.iq.issued_per_cycle::6        18511      0.78%     99.54% # Number of insts issued each cycle
system.switch_cpus1.iq.issued_per_cycle::7         9525      0.40%     99.94% # Number of insts issued each cycle
system.switch_cpus1.iq.issued_per_cycle::8         1334      0.06%    100.00% # Number of insts issued each cycle
system.switch_cpus1.iq.issued_per_cycle::overflows            0      0.00%    100.00% # Number of insts issued each cycle
system.switch_cpus1.iq.issued_per_cycle::min_value            0                       # Number of insts issued each cycle
system.switch_cpus1.iq.issued_per_cycle::max_value            8                       # Number of insts issued each cycle
system.switch_cpus1.iq.issued_per_cycle::total      2379873                       # Number of insts issued each cycle
system.switch_cpus1.iq.fu_full::No_OpClass            0      0.00%      0.00% # attempts to use FU when none available
system.switch_cpus1.iq.fu_full::IntAlu            280     11.47%     11.47% # attempts to use FU when none available
system.switch_cpus1.iq.fu_full::IntMult             0      0.00%     11.47% # attempts to use FU when none available
system.switch_cpus1.iq.fu_full::IntDiv              0      0.00%     11.47% # attempts to use FU when none available
system.switch_cpus1.iq.fu_full::FloatAdd            0      0.00%     11.47% # attempts to use FU when none available
system.switch_cpus1.iq.fu_full::FloatCmp            0      0.00%     11.47% # attempts to use FU when none available
system.switch_cpus1.iq.fu_full::FloatCvt            0      0.00%     11.47% # attempts to use FU when none available
system.switch_cpus1.iq.fu_full::FloatMult            0      0.00%     11.47% # attempts to use FU when none available
system.switch_cpus1.iq.fu_full::FloatDiv            0      0.00%     11.47% # attempts to use FU when none available
system.switch_cpus1.iq.fu_full::FloatSqrt            0      0.00%     11.47% # attempts to use FU when none available
system.switch_cpus1.iq.fu_full::SimdAdd             0      0.00%     11.47% # attempts to use FU when none available
system.switch_cpus1.iq.fu_full::SimdAddAcc            0      0.00%     11.47% # attempts to use FU when none available
system.switch_cpus1.iq.fu_full::SimdAlu             0      0.00%     11.47% # attempts to use FU when none available
system.switch_cpus1.iq.fu_full::SimdCmp             0      0.00%     11.47% # attempts to use FU when none available
system.switch_cpus1.iq.fu_full::SimdCvt             0      0.00%     11.47% # attempts to use FU when none available
system.switch_cpus1.iq.fu_full::SimdMisc            0      0.00%     11.47% # attempts to use FU when none available
system.switch_cpus1.iq.fu_full::SimdMult            0      0.00%     11.47% # attempts to use FU when none available
system.switch_cpus1.iq.fu_full::SimdMultAcc            0      0.00%     11.47% # attempts to use FU when none available
system.switch_cpus1.iq.fu_full::SimdShift            0      0.00%     11.47% # attempts to use FU when none available
system.switch_cpus1.iq.fu_full::SimdShiftAcc            0      0.00%     11.47% # attempts to use FU when none available
system.switch_cpus1.iq.fu_full::SimdSqrt            0      0.00%     11.47% # attempts to use FU when none available
system.switch_cpus1.iq.fu_full::SimdFloatAdd            0      0.00%     11.47% # attempts to use FU when none available
system.switch_cpus1.iq.fu_full::SimdFloatAlu            0      0.00%     11.47% # attempts to use FU when none available
system.switch_cpus1.iq.fu_full::SimdFloatCmp            0      0.00%     11.47% # attempts to use FU when none available
system.switch_cpus1.iq.fu_full::SimdFloatCvt            0      0.00%     11.47% # attempts to use FU when none available
system.switch_cpus1.iq.fu_full::SimdFloatDiv            0      0.00%     11.47% # attempts to use FU when none available
system.switch_cpus1.iq.fu_full::SimdFloatMisc            0      0.00%     11.47% # attempts to use FU when none available
system.switch_cpus1.iq.fu_full::SimdFloatMult            0      0.00%     11.47% # attempts to use FU when none available
system.switch_cpus1.iq.fu_full::SimdFloatMultAcc            0      0.00%     11.47% # attempts to use FU when none available
system.switch_cpus1.iq.fu_full::SimdFloatSqrt            0      0.00%     11.47% # attempts to use FU when none available
system.switch_cpus1.iq.fu_full::MemRead           906     37.12%     48.59% # attempts to use FU when none available
system.switch_cpus1.iq.fu_full::MemWrite         1255     51.41%    100.00% # attempts to use FU when none available
system.switch_cpus1.iq.fu_full::IprAccess            0      0.00%    100.00% # attempts to use FU when none available
system.switch_cpus1.iq.fu_full::InstPrefetch            0      0.00%    100.00% # attempts to use FU when none available
system.switch_cpus1.iq.FU_type_0::No_OpClass            0      0.00%      0.00% # Type of FU issued
system.switch_cpus1.iq.FU_type_0::IntAlu      1159518     84.14%     84.14% # Type of FU issued
system.switch_cpus1.iq.FU_type_0::IntMult        20431      1.48%     85.62% # Type of FU issued
system.switch_cpus1.iq.FU_type_0::IntDiv            0      0.00%     85.62% # Type of FU issued
system.switch_cpus1.iq.FU_type_0::FloatAdd            0      0.00%     85.62% # Type of FU issued
system.switch_cpus1.iq.FU_type_0::FloatCmp            0      0.00%     85.62% # Type of FU issued
system.switch_cpus1.iq.FU_type_0::FloatCvt            0      0.00%     85.62% # Type of FU issued
system.switch_cpus1.iq.FU_type_0::FloatMult            0      0.00%     85.62% # Type of FU issued
system.switch_cpus1.iq.FU_type_0::FloatDiv            0      0.00%     85.62% # Type of FU issued
system.switch_cpus1.iq.FU_type_0::FloatSqrt            0      0.00%     85.62% # Type of FU issued
system.switch_cpus1.iq.FU_type_0::SimdAdd            0      0.00%     85.62% # Type of FU issued
system.switch_cpus1.iq.FU_type_0::SimdAddAcc            0      0.00%     85.62% # Type of FU issued
system.switch_cpus1.iq.FU_type_0::SimdAlu            0      0.00%     85.62% # Type of FU issued
system.switch_cpus1.iq.FU_type_0::SimdCmp            0      0.00%     85.62% # Type of FU issued
system.switch_cpus1.iq.FU_type_0::SimdCvt            0      0.00%     85.62% # Type of FU issued
system.switch_cpus1.iq.FU_type_0::SimdMisc            0      0.00%     85.62% # Type of FU issued
[...]
system.cpu7.icache.ReadReq_miss_latency::total      2170266                       # number of ReadReq miss cycles
system.cpu7.icache.demand_miss_latency::switch_cpus7.inst      2170266                       # number of demand (read+write) miss cycles
system.cpu7.icache.demand_miss_latency::total      2170266                       # number of demand (read+write) miss cycles
system.cpu7.icache.overall_miss_latency::switch_cpus7.inst      2170266                       # number of overall miss cycles
system.cpu7.icache.overall_miss_latency::total      2170266                       # number of overall miss cycles
system.cpu7.icache.ReadReq_accesses::switch_cpus7.inst       127510                       # number of ReadReq accesses(hits+misses)
system.cpu7.icache.ReadReq_accesses::total       127510                       # number of ReadReq accesses(hits+misses)
system.cpu7.icache.demand_accesses::switch_cpus7.inst       127510                       # number of demand (read+write) accesses
system.cpu7.icache.demand_accesses::total       127510                       # number of demand (read+write) accesses
system.cpu7.icache.overall_accesses::switch_cpus7.inst       127510                       # number of overall (read+write) accesses
system.cpu7.icache.overall_accesses::total       127510                       # number of overall (read+write) accesses
system.cpu7.icache.ReadReq_miss_rate::switch_cpus7.inst     0.000110                       # miss rate for ReadReq accesses
system.cpu7.icache.ReadReq_miss_rate::total     0.000110                       # miss rate for ReadReq accesses
system.cpu7.icache.demand_miss_rate::switch_cpus7.inst     0.000110                       # miss rate for demand accesses
system.cpu7.icache.demand_miss_rate::total     0.000110                       # miss rate for demand accesses
system.cpu7.icache.overall_miss_rate::switch_cpus7.inst     0.000110                       # miss rate for overall accesses
system.cpu7.icache.overall_miss_rate::total     0.000110                       # miss rate for overall accesses
system.cpu7.icache.ReadReq_avg_miss_latency::switch_cpus7.inst       155019                       # average ReadReq miss latency
system.cpu7.icache.ReadReq_avg_miss_latency::total       155019                       # average ReadReq miss latency
system.cpu7.icache.demand_avg_miss_latency::switch_cpus7.inst       155019                       # average overall miss latency
system.cpu7.icache.demand_avg_miss_latency::total       155019                       # average overall miss latency
system.cpu7.icache.overall_avg_miss_latency::switch_cpus7.inst       155019                       # average overall miss latency
system.cpu7.icache.overall_avg_miss_latency::total       155019                       # average overall miss latency
system.cpu7.icache.blocked_cycles::no_mshrs            0                       # number of cycles access was blocked
system.cpu7.icache.blocked_cycles::no_targets            0                       # number of cycles access was blocked
system.cpu7.icache.blocked::no_mshrs                0                       # number of cycles access was blocked
system.cpu7.icache.blocked::no_targets              0                       # number of cycles access was blocked
system.cpu7.icache.avg_blocked_cycles::no_mshrs          nan                       # average number of cycles each access was blocked
system.cpu7.icache.avg_blocked_cycles::no_targets          nan                       # average number of cycles each access was blocked
system.cpu7.icache.fast_writes                      0                       # number of fast writes performed
system.cpu7.icache.cache_copies                     0                       # number of cache copies performed
system.cpu7.icache.ReadReq_mshr_hits::switch_cpus7.inst            3                       # number of ReadReq MSHR hits
system.cpu7.icache.ReadReq_mshr_hits::total            3                       # number of ReadReq MSHR hits
system.cpu7.icache.demand_mshr_hits::switch_cpus7.inst            3                       # number of demand (read+write) MSHR hits
system.cpu7.icache.demand_mshr_hits::total            3                       # number of demand (read+write) MSHR hits
system.cpu7.icache.overall_mshr_hits::switch_cpus7.inst            3                       # number of overall MSHR hits
system.cpu7.icache.overall_mshr_hits::total            3                       # number of overall MSHR hits
system.cpu7.icache.ReadReq_mshr_misses::switch_cpus7.inst           11                       # number of ReadReq MSHR misses
system.cpu7.icache.ReadReq_mshr_misses::total           11                       # number of ReadReq MSHR misses
system.cpu7.icache.demand_mshr_misses::switch_cpus7.inst           11                       # number of demand (read+write) MSHR misses
system.cpu7.icache.demand_mshr_misses::total           11                       # number of demand (read+write) MSHR misses
system.cpu7.icache.overall_mshr_misses::switch_cpus7.inst           11                       # number of overall MSHR misses
system.cpu7.icache.overall_mshr_misses::total           11                       # number of overall MSHR misses
system.cpu7.icache.ReadReq_mshr_miss_latency::switch_cpus7.inst      1796089                       # number of ReadReq MSHR miss cycles
system.cpu7.icache.ReadReq_mshr_miss_latency::total      1796089                       # number of ReadReq MSHR miss cycles
system.cpu7.icache.demand_mshr_miss_latency::switch_cpus7.inst      1796089                       # number of demand (read+write) MSHR miss cycles
system.cpu7.icache.demand_mshr_miss_latency::total      1796089                       # number of demand (read+write) MSHR miss cycles
system.cpu7.icache.overall_mshr_miss_latency::switch_cpus7.inst      1796089                       # number of overall MSHR miss cycles
system.cpu7.icache.overall_mshr_miss_latency::total      1796089                       # number of overall MSHR miss cycles
system.cpu7.icache.ReadReq_mshr_miss_rate::switch_cpus7.inst     0.000086                       # mshr miss rate for ReadReq accesses
system.cpu7.icache.ReadReq_mshr_miss_rate::total     0.000086                       # mshr miss rate for ReadReq accesses
system.cpu7.icache.demand_mshr_miss_rate::switch_cpus7.inst     0.000086                       # mshr miss rate for demand accesses
system.cpu7.icache.demand_mshr_miss_rate::total     0.000086                       # mshr miss rate for demand accesses
system.cpu7.icache.overall_mshr_miss_rate::switch_cpus7.inst     0.000086                       # mshr miss rate for overall accesses
system.cpu7.icache.overall_mshr_miss_rate::total     0.000086                       # mshr miss rate for overall accesses
system.cpu7.icache.ReadReq_avg_mshr_miss_latency::switch_cpus7.inst 163280.818182                       # average ReadReq mshr miss latency
system.cpu7.icache.ReadReq_avg_mshr_miss_latency::total 163280.818182                       # average ReadReq mshr miss latency
system.cpu7.icache.demand_avg_mshr_miss_latency::switch_cpus7.inst 163280.818182                       # average overall mshr miss latency
system.cpu7.icache.demand_avg_mshr_miss_latency::total 163280.818182                       # average overall mshr miss latency
system.cpu7.icache.overall_avg_mshr_miss_latency::switch_cpus7.inst 163280.818182                       # average overall mshr miss latency
system.cpu7.icache.overall_avg_mshr_miss_latency::total 163280.818182                       # average overall mshr miss latency
system.cpu7.icache.no_allocate_misses               0                       # Number of misses that were no-allocate
system.cpu7.dcache.replacements                   366                       # number of replacements
system.cpu7.dcache.tagsinuse                      256                       # Cycle average of tags in use
system.cpu7.dcache.total_refs               109335571                       # Total number of references to valid blocks.
system.cpu7.dcache.sampled_refs                   622                       # Sample count of references to valid blocks.
system.cpu7.dcache.avg_refs              175780.660772                       # Average number of references to valid blocks.
system.cpu7.dcache.warmup_cycle                     0                       # Cycle when the warmup percentage was hit.
system.cpu7.dcache.occ_blocks::switch_cpus7.data   129.591338                       # Average occupied blocks per requestor
system.cpu7.dcache.occ_blocks::cpu7.data   126.408662                       # Average occupied blocks per requestor
system.cpu7.dcache.occ_percent::switch_cpus7.data     0.506216                       # Average percentage of cache occupancy
system.cpu7.dcache.occ_percent::cpu7.data     0.493784                       # Average percentage of cache occupancy
system.cpu7.dcache.occ_percent::total               1                       # Average percentage of cache occupancy
system.cpu7.dcache.ReadReq_hits::switch_cpus7.data        99869                       # number of ReadReq hits
system.cpu7.dcache.ReadReq_hits::total          99869                       # number of ReadReq hits
system.cpu7.dcache.WriteReq_hits::switch_cpus7.data        73461                       # number of WriteReq hits
system.cpu7.dcache.WriteReq_hits::total         73461                       # number of WriteReq hits
system.cpu7.dcache.LoadLockedReq_hits::switch_cpus7.data          184                       # number of LoadLockedReq hits
system.cpu7.dcache.LoadLockedReq_hits::total          184                       # number of LoadLockedReq hits
system.cpu7.dcache.StoreCondReq_hits::switch_cpus7.data          178                       # number of StoreCondReq hits
system.cpu7.dcache.StoreCondReq_hits::total          178                       # number of StoreCondReq hits
system.cpu7.dcache.demand_hits::switch_cpus7.data       173330                       # number of demand (read+write) hits
system.cpu7.dcache.demand_hits::total          173330                       # number of demand (read+write) hits
system.cpu7.dcache.overall_hits::switch_cpus7.data       173330                       # number of overall hits
system.cpu7.dcache.overall_hits::total         173330                       # number of overall hits
system.cpu7.dcache.ReadReq_misses::switch_cpus7.data          926                       # number of ReadReq misses
system.cpu7.dcache.ReadReq_misses::total          926                       # number of ReadReq misses
system.cpu7.dcache.demand_misses::switch_cpus7.data          926                       # number of demand (read+write) misses
system.cpu7.dcache.demand_misses::total           926                       # number of demand (read+write) misses
system.cpu7.dcache.overall_misses::switch_cpus7.data          926                       # number of overall misses
system.cpu7.dcache.overall_misses::total          926                       # number of overall misses
system.cpu7.dcache.ReadReq_miss_latency::switch_cpus7.data     94034593                       # number of ReadReq miss cycles
system.cpu7.dcache.ReadReq_miss_latency::total     94034593                       # number of ReadReq miss cycles
system.cpu7.dcache.demand_miss_latency::switch_cpus7.data     94034593                       # number of demand (read+write) miss cycles
system.cpu7.dcache.demand_miss_latency::total     94034593                       # number of demand (read+write) miss cycles
system.cpu7.dcache.overall_miss_latency::switch_cpus7.data     94034593                       # number of overall miss cycles
system.cpu7.dcache.overall_miss_latency::total     94034593                       # number of overall miss cycles
system.cpu7.dcache.ReadReq_accesses::switch_cpus7.data       100795                       # number of ReadReq accesses(hits+misses)
system.cpu7.dcache.ReadReq_accesses::total       100795                       # number of ReadReq accesses(hits+misses)
system.cpu7.dcache.WriteReq_accesses::switch_cpus7.data        73461                       # number of WriteReq accesses(hits+misses)
system.cpu7.dcache.WriteReq_accesses::total        73461                       # number of WriteReq accesses(hits+misses)
system.cpu7.dcache.LoadLockedReq_accesses::switch_cpus7.data          184                       # number of LoadLockedReq accesses(hits+misses)
system.cpu7.dcache.LoadLockedReq_accesses::total          184                       # number of LoadLockedReq accesses(hits+misses)
system.cpu7.dcache.StoreCondReq_accesses::switch_cpus7.data          178                       # number of StoreCondReq accesses(hits+misses)
system.cpu7.dcache.StoreCondReq_accesses::total          178                       # number of StoreCondReq accesses(hits+misses)
system.cpu7.dcache.demand_accesses::switch_cpus7.data       174256                       # number of demand (read+write) accesses
system.cpu7.dcache.demand_accesses::total       174256                       # number of demand (read+write) accesses
system.cpu7.dcache.overall_accesses::switch_cpus7.data       174256                       # number of overall (read+write) accesses
system.cpu7.dcache.overall_accesses::total       174256                       # number of overall (read+write) accesses
system.cpu7.dcache.ReadReq_miss_rate::switch_cpus7.data     0.009187                       # miss rate for ReadReq accesses
system.cpu7.dcache.ReadReq_miss_rate::total     0.009187                       # miss rate for ReadReq accesses
system.cpu7.dcache.demand_miss_rate::switch_cpus7.data     0.005314                       # miss rate for demand accesses
system.cpu7.dcache.demand_miss_rate::total     0.005314                       # miss rate for demand accesses
system.cpu7.dcache.overall_miss_rate::switch_cpus7.data     0.005314                       # miss rate for overall accesses
system.cpu7.dcache.overall_miss_rate::total     0.005314                       # miss rate for overall accesses
system.cpu7.dcache.ReadReq_avg_miss_latency::switch_cpus7.data 101549.236501                       # average ReadReq miss latency
system.cpu7.dcache.ReadReq_avg_miss_latency::total 101549.236501                       # average ReadReq miss latency
system.cpu7.dcache.demand_avg_miss_latency::switch_cpus7.data 101549.236501                       # average overall miss latency
system.cpu7.dcache.demand_avg_miss_latency::total 101549.236501                       # average overall miss latency
system.cpu7.dcache.overall_avg_miss_latency::switch_cpus7.data 101549.236501                       # average overall miss latency
system.cpu7.dcache.overall_avg_miss_latency::total 101549.236501                       # average overall miss latency
system.cpu7.dcache.blocked_cycles::no_mshrs            0                       # number of cycles access was blocked
system.cpu7.dcache.blocked_cycles::no_targets            0                       # number of cycles access was blocked
system.cpu7.dcache.blocked::no_mshrs                0                       # number of cycles access was blocked
system.cpu7.dcache.blocked::no_targets              0                       # number of cycles access was blocked
system.cpu7.dcache.avg_blocked_cycles::no_mshrs          nan                       # average number of cycles each access was blocked
system.cpu7.dcache.avg_blocked_cycles::no_targets          nan                       # average number of cycles each access was blocked
system.cpu7.dcache.fast_writes                      0                       # number of fast writes performed
system.cpu7.dcache.cache_copies                     0                       # number of cache copies performed
system.cpu7.dcache.writebacks::writebacks           90                       # number of writebacks
system.cpu7.dcache.writebacks::total               90                       # number of writebacks
system.cpu7.dcache.ReadReq_mshr_hits::switch_cpus7.data          560                       # number of ReadReq MSHR hits
system.cpu7.dcache.ReadReq_mshr_hits::total          560                       # number of ReadReq MSHR hits
system.cpu7.dcache.demand_mshr_hits::switch_cpus7.data          560                       # number of demand (read+write) MSHR hits
system.cpu7.dcache.demand_mshr_hits::total          560                       # number of demand (read+write) MSHR hits
system.cpu7.dcache.overall_mshr_hits::switch_cpus7.data          560                       # number of overall MSHR hits
system.cpu7.dcache.overall_mshr_hits::total          560                       # number of overall MSHR hits
system.cpu7.dcache.ReadReq_mshr_misses::switch_cpus7.data          366                       # number of ReadReq MSHR misses
system.cpu7.dcache.ReadReq_mshr_misses::total          366                       # number of ReadReq MSHR misses
system.cpu7.dcache.demand_mshr_misses::switch_cpus7.data          366                       # number of demand (read+write) MSHR misses
system.cpu7.dcache.demand_mshr_misses::total          366                       # number of demand (read+write) MSHR misses
system.cpu7.dcache.overall_mshr_misses::switch_cpus7.data          366                       # number of overall MSHR misses
system.cpu7.dcache.overall_mshr_misses::total          366                       # number of overall MSHR misses
system.cpu7.dcache.ReadReq_mshr_miss_latency::switch_cpus7.data     33228472                       # number of ReadReq MSHR miss cycles
system.cpu7.dcache.ReadReq_mshr_miss_latency::total     33228472                       # number of ReadReq MSHR miss cycles
system.cpu7.dcache.demand_mshr_miss_latency::switch_cpus7.data     33228472                       # number of demand (read+write) MSHR miss cycles
system.cpu7.dcache.demand_mshr_miss_latency::total     33228472                       # number of demand (read+write) MSHR miss cycles
system.cpu7.dcache.overall_mshr_miss_latency::switch_cpus7.data     33228472                       # number of overall MSHR miss cycles
system.cpu7.dcache.overall_mshr_miss_latency::total     33228472                       # number of overall MSHR miss cycles
system.cpu7.dcache.ReadReq_mshr_miss_rate::switch_cpus7.data     0.003631                       # mshr miss rate for ReadReq accesses
system.cpu7.dcache.ReadReq_mshr_miss_rate::total     0.003631                       # mshr miss rate for ReadReq accesses
system.cpu7.dcache.demand_mshr_miss_rate::switch_cpus7.data     0.002100                       # mshr miss rate for demand accesses
system.cpu7.dcache.demand_mshr_miss_rate::total     0.002100                       # mshr miss rate for demand accesses
system.cpu7.dcache.overall_mshr_miss_rate::switch_cpus7.data     0.002100                       # mshr miss rate for overall accesses
system.cpu7.dcache.overall_mshr_miss_rate::total     0.002100                       # mshr miss rate for overall accesses
system.cpu7.dcache.ReadReq_avg_mshr_miss_latency::switch_cpus7.data 90788.174863                       # average ReadReq mshr miss latency
system.cpu7.dcache.ReadReq_avg_mshr_miss_latency::total 90788.174863                       # average ReadReq mshr miss latency
system.cpu7.dcache.demand_avg_mshr_miss_latency::switch_cpus7.data 90788.174863                       # average overall mshr miss latency
system.cpu7.dcache.demand_avg_mshr_miss_latency::total 90788.174863                       # average overall mshr miss latency
system.cpu7.dcache.overall_avg_mshr_miss_latency::switch_cpus7.data 90788.174863                       # average overall mshr miss latency
system.cpu7.dcache.overall_avg_mshr_miss_latency::total 90788.174863                       # average overall mshr miss latency
system.cpu7.dcache.no_allocate_misses               0                       # Number of misses that were no-allocate

---------- End Simulation Statistics   ----------
