
---------- Begin Simulation Statistics ----------
sim_seconds                                  0.120701                       # Number of seconds simulated
sim_ticks                                120701091077                       # Number of ticks simulated
final_tick                               1178559912390                       # Number of ticks from beginning of simulation (restored from checkpoints and never reset)
sim_freq                                 1000000000000                       # Frequency of simulated ticks
host_inst_rate                                 128219                       # Simulator instruction rate (inst/s)
host_op_rate                                   165097                       # Simulator op (including micro ops) rate (op/s)
host_tick_rate                                3587048                       # Simulator tick rate (ticks/s)
host_mem_usage                               16917840                       # Number of bytes of host memory used
host_seconds                                 33649.14                       # Real time elapsed on the host
sim_insts                                  4314462409                       # Number of instructions simulated
sim_ops                                    5555367913                       # Number of ops (including micro ops) simulated
system.physmem.bytes_read::switch_cpus0.inst         1280                       # Number of bytes read from this memory
system.physmem.bytes_read::switch_cpus0.data      3744512                       # Number of bytes read from this memory
system.physmem.bytes_read::switch_cpus1.inst         1792                       # Number of bytes read from this memory
system.physmem.bytes_read::switch_cpus1.data      2657280                       # Number of bytes read from this memory
system.physmem.bytes_read::switch_cpus2.inst         1664                       # Number of bytes read from this memory
system.physmem.bytes_read::switch_cpus2.data      4144128                       # Number of bytes read from this memory
system.physmem.bytes_read::switch_cpus3.inst         1792                       # Number of bytes read from this memory
system.physmem.bytes_read::switch_cpus3.data      2466304                       # Number of bytes read from this memory
system.physmem.bytes_read::total             13018752                       # Number of bytes read from this memory
system.physmem.bytes_inst_read::switch_cpus0.inst         1280                       # Number of instructions bytes read from this memory
system.physmem.bytes_inst_read::switch_cpus1.inst         1792                       # Number of instructions bytes read from this memory
system.physmem.bytes_inst_read::switch_cpus2.inst         1664                       # Number of instructions bytes read from this memory
system.physmem.bytes_inst_read::switch_cpus3.inst         1792                       # Number of instructions bytes read from this memory
system.physmem.bytes_inst_read::total            6528                       # Number of instructions bytes read from this memory
system.physmem.bytes_written::writebacks      3041408                       # Number of bytes written to this memory
system.physmem.bytes_written::total           3041408                       # Number of bytes written to this memory
system.physmem.num_reads::switch_cpus0.inst           10                       # Number of read requests responded to by this memory
system.physmem.num_reads::switch_cpus0.data        29254                       # Number of read requests responded to by this memory
system.physmem.num_reads::switch_cpus1.inst           14                       # Number of read requests responded to by this memory
system.physmem.num_reads::switch_cpus1.data        20760                       # Number of read requests responded to by this memory
system.physmem.num_reads::switch_cpus2.inst           13                       # Number of read requests responded to by this memory
system.physmem.num_reads::switch_cpus2.data        32376                       # Number of read requests responded to by this memory
system.physmem.num_reads::switch_cpus3.inst           14                       # Number of read requests responded to by this memory
system.physmem.num_reads::switch_cpus3.data        19268                       # Number of read requests responded to by this memory
system.physmem.num_reads::total                101709                       # Number of read requests responded to by this memory
system.physmem.num_writes::writebacks           23761                       # Number of write requests responded to by this memory
system.physmem.num_writes::functional               0                       # Number of write requests responded to by this memory
system.physmem.num_writes::interrupt                0                       # Number of write requests responded to by this memory
system.physmem.num_writes::switch_cpus0.dtb.walker            0                       # Number of write requests responded to by this memory
system.physmem.num_writes::switch_cpus0.itb.walker            0                       # Number of write requests responded to by this memory
system.physmem.num_writes::switch_cpus0.inst            0                       # Number of write requests responded to by this memory
system.physmem.num_writes::switch_cpus0.data            0                       # Number of write requests responded to by this memory
system.physmem.num_writes::switch_cpus1.dtb.walker            0                       # Number of write requests responded to by this memory
system.physmem.num_writes::switch_cpus1.itb.walker            0                       # Number of write requests responded to by this memory
system.physmem.num_writes::switch_cpus1.inst            0                       # Number of write requests responded to by this memory
system.physmem.num_writes::switch_cpus1.data            0                       # Number of write requests responded to by this memory
system.physmem.num_writes::switch_cpus2.dtb.walker            0                       # Number of write requests responded to by this memory
system.physmem.num_writes::switch_cpus2.itb.walker            0                       # Number of write requests responded to by this memory
system.physmem.num_writes::switch_cpus2.inst            0                       # Number of write requests responded to by this memory
system.physmem.num_writes::switch_cpus2.data            0                       # Number of write requests responded to by this memory
system.physmem.num_writes::switch_cpus3.dtb.walker            0                       # Number of write requests responded to by this memory
system.physmem.num_writes::switch_cpus3.itb.walker            0                       # Number of write requests responded to by this memory
system.physmem.num_writes::switch_cpus3.inst            0                       # Number of write requests responded to by this memory
system.physmem.num_writes::switch_cpus3.data            0                       # Number of write requests responded to by this memory
system.physmem.num_writes::cpu0.dtb.walker            0                       # Number of write requests responded to by this memory
system.physmem.num_writes::cpu0.itb.walker            0                       # Number of write requests responded to by this memory
system.physmem.num_writes::cpu0.inst                0                       # Number of write requests responded to by this memory
system.physmem.num_writes::cpu0.data                0                       # Number of write requests responded to by this memory
system.physmem.num_writes::cpu1.dtb.walker            0                       # Number of write requests responded to by this memory
system.physmem.num_writes::cpu1.itb.walker            0                       # Number of write requests responded to by this memory
system.physmem.num_writes::cpu1.inst                0                       # Number of write requests responded to by this memory
system.physmem.num_writes::cpu1.data                0                       # Number of write requests responded to by this memory
system.physmem.num_writes::cpu2.dtb.walker            0                       # Number of write requests responded to by this memory
system.physmem.num_writes::cpu2.itb.walker            0                       # Number of write requests responded to by this memory
system.physmem.num_writes::cpu2.inst                0                       # Number of write requests responded to by this memory
system.physmem.num_writes::cpu2.data                0                       # Number of write requests responded to by this memory
system.physmem.num_writes::cpu3.dtb.walker            0                       # Number of write requests responded to by this memory
system.physmem.num_writes::cpu3.itb.walker            0                       # Number of write requests responded to by this memory
system.physmem.num_writes::cpu3.inst                0                       # Number of write requests responded to by this memory
system.physmem.num_writes::cpu3.data                0                       # Number of write requests responded to by this memory
system.physmem.num_writes::total                23761                       # Number of write requests responded to by this memory
system.physmem.bw_read::switch_cpus0.inst        10605                       # Total read bandwidth from this memory (bytes/s)
system.physmem.bw_read::switch_cpus0.data     31023017                       # Total read bandwidth from this memory (bytes/s)
system.physmem.bw_read::switch_cpus1.inst        14847                       # Total read bandwidth from this memory (bytes/s)
system.physmem.bw_read::switch_cpus1.data     22015377                       # Total read bandwidth from this memory (bytes/s)
system.physmem.bw_read::switch_cpus2.inst        13786                       # Total read bandwidth from this memory (bytes/s)
system.physmem.bw_read::switch_cpus2.data     34333807                       # Total read bandwidth from this memory (bytes/s)
system.physmem.bw_read::switch_cpus3.inst        14847                       # Total read bandwidth from this memory (bytes/s)
system.physmem.bw_read::switch_cpus3.data     20433154                       # Total read bandwidth from this memory (bytes/s)
system.physmem.bw_read::total               107859439                       # Total read bandwidth from this memory (bytes/s)
system.physmem.bw_inst_read::switch_cpus0.inst        10605                       # Instruction read bandwidth from this memory (bytes/s)
system.physmem.bw_inst_read::switch_cpus1.inst        14847                       # Instruction read bandwidth from this memory (bytes/s)
system.physmem.bw_inst_read::switch_cpus2.inst        13786                       # Instruction read bandwidth from this memory (bytes/s)
system.physmem.bw_inst_read::switch_cpus3.inst        14847                       # Instruction read bandwidth from this memory (bytes/s)
system.physmem.bw_inst_read::total              54084                       # Instruction read bandwidth from this memory (bytes/s)
system.physmem.bw_write::writebacks          25197850                       # Write bandwidth from this memory (bytes/s)
system.physmem.bw_write::total               25197850                       # Write bandwidth from this memory (bytes/s)
system.physmem.bw_total::writebacks          25197850                       # Total bandwidth to/from this memory (bytes/s)
system.physmem.bw_total::switch_cpus0.inst        10605                       # Total bandwidth to/from this memory (bytes/s)
system.physmem.bw_total::switch_cpus0.data     31023017                       # Total bandwidth to/from this memory (bytes/s)
system.physmem.bw_total::switch_cpus1.inst        14847                       # Total bandwidth to/from this memory (bytes/s)
system.physmem.bw_total::switch_cpus1.data     22015377                       # Total bandwidth to/from this memory (bytes/s)
system.physmem.bw_total::switch_cpus2.inst        13786                       # Total bandwidth to/from this memory (bytes/s)
system.physmem.bw_total::switch_cpus2.data     34333807                       # Total bandwidth to/from this memory (bytes/s)
system.physmem.bw_total::switch_cpus3.inst        14847                       # Total bandwidth to/from this memory (bytes/s)
system.physmem.bw_total::switch_cpus3.data     20433154                       # Total bandwidth to/from this memory (bytes/s)
system.physmem.bw_total::total              133057289                       # Total bandwidth to/from this memory (bytes/s)
system.switch_cpus0.dtb.inst_hits                   0                       # ITB inst hits
system.switch_cpus0.dtb.inst_misses                 0                       # ITB inst misses
system.switch_cpus0.dtb.read_hits                   0                       # DTB read hits
system.switch_cpus0.dtb.read_misses                 0                       # DTB read misses
system.switch_cpus0.dtb.write_hits                  0                       # DTB write hits
system.switch_cpus0.dtb.write_misses                0                       # DTB write misses
system.switch_cpus0.dtb.flush_tlb                   0                       # Number of times complete TLB was flushed
system.switch_cpus0.dtb.flush_tlb_mva               0                       # Number of times TLB was flushed by MVA
system.switch_cpus0.dtb.flush_tlb_mva_asid            0                       # Number of times TLB was flushed by MVA & ASID
system.switch_cpus0.dtb.flush_tlb_asid              0                       # Number of times TLB was flushed by ASID
system.switch_cpus0.dtb.flush_entries               0                       # Number of entries that have been flushed from TLB
system.switch_cpus0.dtb.align_faults                0                       # Number of TLB faults due to alignment restrictions
system.switch_cpus0.dtb.prefetch_faults             0                       # Number of TLB faults due to prefetch
system.switch_cpus0.dtb.domain_faults               0                       # Number of TLB faults due to domain restrictions
system.switch_cpus0.dtb.perms_faults                0                       # Number of TLB faults due to permissions restrictions
system.switch_cpus0.dtb.read_accesses               0                       # DTB read accesses
system.switch_cpus0.dtb.write_accesses              0                       # DTB write accesses
system.switch_cpus0.dtb.inst_accesses               0                       # ITB inst accesses
system.switch_cpus0.dtb.hits                        0                       # DTB hits
system.switch_cpus0.dtb.misses                      0                       # DTB misses
system.switch_cpus0.dtb.accesses                    0                       # DTB accesses
system.switch_cpus0.itb.inst_hits                   0                       # ITB inst hits
system.switch_cpus0.itb.inst_misses                 0                       # ITB inst misses
system.switch_cpus0.itb.read_hits                   0                       # DTB read hits
system.switch_cpus0.itb.read_misses                 0                       # DTB read misses
system.switch_cpus0.itb.write_hits                  0                       # DTB write hits
system.switch_cpus0.itb.write_misses                0                       # DTB write misses
system.switch_cpus0.itb.flush_tlb                   0                       # Number of times complete TLB was flushed
system.switch_cpus0.itb.flush_tlb_mva               0                       # Number of times TLB was flushed by MVA
system.switch_cpus0.itb.flush_tlb_mva_asid            0                       # Number of times TLB was flushed by MVA & ASID
system.switch_cpus0.itb.flush_tlb_asid              0                       # Number of times TLB was flushed by ASID
system.switch_cpus0.itb.flush_entries               0                       # Number of entries that have been flushed from TLB
system.switch_cpus0.itb.align_faults                0                       # Number of TLB faults due to alignment restrictions
system.switch_cpus0.itb.prefetch_faults             0                       # Number of TLB faults due to prefetch
system.switch_cpus0.itb.domain_faults               0                       # Number of TLB faults due to domain restrictions
system.switch_cpus0.itb.perms_faults                0                       # Number of TLB faults due to permissions restrictions
system.switch_cpus0.itb.read_accesses               0                       # DTB read accesses
system.switch_cpus0.itb.write_accesses              0                       # DTB write accesses
system.switch_cpus0.itb.inst_accesses               0                       # ITB inst accesses
system.switch_cpus0.itb.hits                        0                       # DTB hits
system.switch_cpus0.itb.misses                      0                       # DTB misses
system.switch_cpus0.itb.accesses                    0                       # DTB accesses
system.cpu0.workload.num_syscalls                   0                       # Number of system calls
system.switch_cpus0.numCycles               144899270                       # number of cpu cycles simulated
system.switch_cpus0.numWorkItemsStarted             0                       # number of work items this cpu started
system.switch_cpus0.numWorkItemsCompleted            0                       # number of work items this cpu completed
system.switch_cpus0.BPredUnit.lookups        23182023                       # Number of BP lookups
system.switch_cpus0.BPredUnit.condPredicted     19091475                       # Number of conditional branches predicted
system.switch_cpus0.BPredUnit.condIncorrect      1932809                       # Number of conditional branches incorrect
system.switch_cpus0.BPredUnit.BTBLookups      9388292                       # Number of BTB lookups
system.switch_cpus0.BPredUnit.BTBHits         8674928                       # Number of BTB hits
system.switch_cpus0.BPredUnit.BTBCorrect            0                       # Number of correct BTB predictions (this stat may not work properly.
system.switch_cpus0.BPredUnit.usedRAS         2438961                       # Number of times the RAS was used to get a target.
system.switch_cpus0.BPredUnit.RASInCorrect        87631                       # Number of incorrect RAS predictions.
system.switch_cpus0.fetch.icacheStallCycles    104500872                       # Number of cycles fetch is stalled on an Icache miss
system.switch_cpus0.fetch.Insts             128085464                       # Number of instructions fetch has processed
system.switch_cpus0.fetch.Branches           23182023                       # Number of branches that fetch encountered
system.switch_cpus0.fetch.predictedBranches     11113889                       # Number of branches that fetch has predicted taken
system.switch_cpus0.fetch.Cycles             27198373                       # Number of cycles fetch has run and was not squashing or blocked
system.switch_cpus0.fetch.SquashCycles        6264375                       # Number of cycles fetch has spent squashing
system.switch_cpus0.fetch.BlockedCycles       5611554                       # Number of cycles fetch has spent blocked
system.switch_cpus0.fetch.CacheLines         12106490                       # Number of cache lines fetched
system.switch_cpus0.fetch.IcacheSquashes      1573441                       # Number of outstanding Icache misses that were squashed
system.switch_cpus0.fetch.rateDist::samples    141610563                       # Number of instructions fetched each cycle (Total)
system.switch_cpus0.fetch.rateDist::mean     1.101774                       # Number of instructions fetched each cycle (Total)
system.switch_cpus0.fetch.rateDist::stdev     2.543722                       # Number of instructions fetched each cycle (Total)
system.switch_cpus0.fetch.rateDist::underflows            0      0.00%      0.00% # Number of instructions fetched each cycle (Total)
system.switch_cpus0.fetch.rateDist::0       114412190     80.79%     80.79% # Number of instructions fetched each cycle (Total)
system.switch_cpus0.fetch.rateDist::1         2783490      1.97%     82.76% # Number of instructions fetched each cycle (Total)
system.switch_cpus0.fetch.rateDist::2         2361535      1.67%     84.43% # Number of instructions fetched each cycle (Total)
system.switch_cpus0.fetch.rateDist::3         2381802      1.68%     86.11% # Number of instructions fetched each cycle (Total)
system.switch_cpus0.fetch.rateDist::4         2272496      1.60%     87.71% # Number of instructions fetched each cycle (Total)
system.switch_cpus0.fetch.rateDist::5         1124243      0.79%     88.51% # Number of instructions fetched each cycle (Total)
system.switch_cpus0.fetch.rateDist::6          779287      0.55%     89.06% # Number of instructions fetched each cycle (Total)
system.switch_cpus0.fetch.rateDist::7         1980206      1.40%     90.46% # Number of instructions fetched each cycle (Total)
system.switch_cpus0.fetch.rateDist::8        13515314      9.54%    100.00% # Number of instructions fetched each cycle (Total)
system.switch_cpus0.fetch.rateDist::overflows            0      0.00%    100.00% # Number of instructions fetched each cycle (Total)
system.switch_cpus0.fetch.rateDist::min_value            0                       # Number of instructions fetched each cycle (Total)
system.switch_cpus0.fetch.rateDist::max_value            8                       # Number of instructions fetched each cycle (Total)
system.switch_cpus0.fetch.rateDist::total    141610563                       # Number of instructions fetched each cycle (Total)
system.switch_cpus0.fetch.branchRate         0.159987                       # Number of branch fetches per cycle
system.switch_cpus0.fetch.rate               0.883962                       # Number of inst fetches per cycle
system.switch_cpus0.decode.IdleCycles       103318390                       # Number of cycles decode is idle
system.switch_cpus0.decode.BlockedCycles      7039838                       # Number of cycles decode is blocked
system.switch_cpus0.decode.RunCycles         26848805                       # Number of cycles decode is running
system.switch_cpus0.decode.UnblockCycles       110227                       # Number of cycles decode is unblocking
system.switch_cpus0.decode.SquashCycles       4293294                       # Number of cycles decode is squashing
system.switch_cpus0.decode.BranchResolved      3730672                       # Number of times decode resolved a branch
system.switch_cpus0.decode.BranchMispred         6471                       # Number of times decode detected a branch misprediction
system.switch_cpus0.decode.DecodedInsts     154487895                       # Number of instructions handled by decode
system.switch_cpus0.decode.SquashedInsts        51234                       # Number of squashed instructions handled by decode
system.switch_cpus0.rename.SquashCycles       4293294                       # Number of cycles rename is squashing
system.switch_cpus0.rename.IdleCycles       103834853                       # Number of cycles rename is idle
system.switch_cpus0.rename.BlockCycles        4412087                       # Number of cycles rename is blocking
system.switch_cpus0.rename.serializeStallCycles      1448345                       # count of cycles rename stalled for serializing inst
system.switch_cpus0.rename.RunCycles         26432245                       # Number of cycles rename is running
system.switch_cpus0.rename.UnblockCycles      1189731                       # Number of cycles rename is unblocking
system.switch_cpus0.rename.RenamedInsts     153039277                       # Number of instructions processed by rename
system.switch_cpus0.rename.ROBFullEvents         1622                       # Number of times rename has blocked due to ROB full
system.switch_cpus0.rename.IQFullEvents        400467                       # Number of times rename has blocked due to IQ full
system.switch_cpus0.rename.LSQFullEvents       626449                       # Number of times rename has blocked due to LSQ full
system.switch_cpus0.rename.FullRegisterEvents        36938                       # Number of times there has been no free registers
system.switch_cpus0.rename.RenamedOperands    214117705                       # Number of destination operands rename has renamed
system.switch_cpus0.rename.RenameLookups    713335344                       # Number of register rename lookups that rename has made
system.switch_cpus0.rename.int_rename_lookups    713335344                       # Number of integer rename lookups
system.switch_cpus0.rename.CommittedMaps    168259218                       # Number of HB maps that are committed
system.switch_cpus0.rename.UndoneMaps        45858480                       # Number of HB maps that are undone due to squashing
system.switch_cpus0.rename.serializingInsts        33336                       # count of serializing insts renamed
system.switch_cpus0.rename.tempSerializingInsts        17314                       # count of temporary serializing insts renamed
system.switch_cpus0.rename.skidInsts          3816810                       # count of insts added to the skid buffer
system.switch_cpus0.memDep0.insertedLoads     15189756                       # Number of loads inserted to the mem dependence unit.
system.switch_cpus0.memDep0.insertedStores      7896757                       # Number of stores inserted to the mem dependence unit.
system.switch_cpus0.memDep0.conflictingLoads       310528                       # Number of conflicting loads.
system.switch_cpus0.memDep0.conflictingStores      1690981                       # Number of conflicting stores.
system.switch_cpus0.iq.iqInstsAdded         149172615                       # Number of instructions added to the IQ (excludes non-spec)
system.switch_cpus0.iq.iqNonSpecInstsAdded        33336                       # Number of non-speculative instructions added to the IQ
system.switch_cpus0.iq.iqInstsIssued        139239540                       # Number of instructions issued
system.switch_cpus0.iq.iqSquashedInstsIssued       107670                       # Number of squashed instructions issued
system.switch_cpus0.iq.iqSquashedInstsExamined     25243512                       # Number of squashed instructions iterated over during squash; mainly for profiling
system.switch_cpus0.iq.iqSquashedOperandsExamined     57149551                       # Number of squashed operands that are examined and possibly removed from graph
system.switch_cpus0.iq.iqSquashedNonSpecRemoved         1292                       # Number of squashed non-spec instructions that were removed
system.switch_cpus0.iq.issued_per_cycle::samples    141610563                       # Number of insts issued each cycle
system.switch_cpus0.iq.issued_per_cycle::mean     0.983257                       # Number of insts issued each cycle
system.switch_cpus0.iq.issued_per_cycle::stdev     1.581919                       # Number of insts issued each cycle
system.switch_cpus0.iq.issued_per_cycle::underflows            0      0.00%      0.00% # Number of insts issued each cycle
system.switch_cpus0.iq.issued_per_cycle::0     84203569     59.46%     59.46% # Number of insts issued each cycle
system.switch_cpus0.iq.issued_per_cycle::1     23733887     16.76%     76.22% # Number of insts issued each cycle
system.switch_cpus0.iq.issued_per_cycle::2     11972687      8.45%     84.68% # Number of insts issued each cycle
system.switch_cpus0.iq.issued_per_cycle::3      7814954      5.52%     90.19% # Number of insts issued each cycle
system.switch_cpus0.iq.issued_per_cycle::4      6901325      4.87%     95.07% # Number of insts issued each cycle
system.switch_cpus0.iq.issued_per_cycle::5      2706982      1.91%     96.98% # Number of insts issued each cycle
system.switch_cpus0.iq.issued_per_cycle::6      3060996      2.16%     99.14% # Number of insts issued each cycle
system.switch_cpus0.iq.issued_per_cycle::7      1120073      0.79%     99.93% # Number of insts issued each cycle
system.switch_cpus0.iq.issued_per_cycle::8        96090      0.07%    100.00% # Number of insts issued each cycle
system.switch_cpus0.iq.issued_per_cycle::overflows            0      0.00%    100.00% # Number of insts issued each cycle
system.switch_cpus0.iq.issued_per_cycle::min_value            0                       # Number of insts issued each cycle
system.switch_cpus0.iq.issued_per_cycle::max_value            8                       # Number of insts issued each cycle
system.switch_cpus0.iq.issued_per_cycle::total    141610563                       # Number of insts issued each cycle
system.switch_cpus0.iq.fu_full::No_OpClass            0      0.00%      0.00% # attempts to use FU when none available
system.switch_cpus0.iq.fu_full::IntAlu         977244     74.88%     74.88% # attempts to use FU when none available
system.switch_cpus0.iq.fu_full::IntMult             0      0.00%     74.88% # attempts to use FU when none available
system.switch_cpus0.iq.fu_full::IntDiv              0      0.00%     74.88% # attempts to use FU when none available
system.switch_cpus0.iq.fu_full::FloatAdd            0      0.00%     74.88% # attempts to use FU when none available
system.switch_cpus0.iq.fu_full::FloatCmp            0      0.00%     74.88% # attempts to use FU when none available
system.switch_cpus0.iq.fu_full::FloatCvt            0      0.00%     74.88% # attempts to use FU when none available
system.switch_cpus0.iq.fu_full::FloatMult            0      0.00%     74.88% # attempts to use FU when none available
system.switch_cpus0.iq.fu_full::FloatDiv            0      0.00%     74.88% # attempts to use FU when none available
system.switch_cpus0.iq.fu_full::FloatSqrt            0      0.00%     74.88% # attempts to use FU when none available
system.switch_cpus0.iq.fu_full::SimdAdd             0      0.00%     74.88% # attempts to use FU when none available
system.switch_cpus0.iq.fu_full::SimdAddAcc            0      0.00%     74.88% # attempts to use FU when none available
system.switch_cpus0.iq.fu_full::SimdAlu             0      0.00%     74.88% # attempts to use FU when none available
system.switch_cpus0.iq.fu_full::SimdCmp             0      0.00%     74.88% # attempts to use FU when none available
system.switch_cpus0.iq.fu_full::SimdCvt             0      0.00%     74.88% # attempts to use FU when none available
system.switch_cpus0.iq.fu_full::SimdMisc            0      0.00%     74.88% # attempts to use FU when none available
system.switch_cpus0.iq.fu_full::SimdMult            0      0.00%     74.88% # attempts to use FU when none available
system.switch_cpus0.iq.fu_full::SimdMultAcc            0      0.00%     74.88% # attempts to use FU when none available
system.switch_cpus0.iq.fu_full::SimdShift            0      0.00%     74.88% # attempts to use FU when none available
system.switch_cpus0.iq.fu_full::SimdShiftAcc            0      0.00%     74.88% # attempts to use FU when none available
system.switch_cpus0.iq.fu_full::SimdSqrt            0      0.00%     74.88% # attempts to use FU when none available
system.switch_cpus0.iq.fu_full::SimdFloatAdd            0      0.00%     74.88% # attempts to use FU when none available
system.switch_cpus0.iq.fu_full::SimdFloatAlu            0      0.00%     74.88% # attempts to use FU when none available
system.switch_cpus0.iq.fu_full::SimdFloatCmp            0      0.00%     74.88% # attempts to use FU when none available
system.switch_cpus0.iq.fu_full::SimdFloatCvt            0      0.00%     74.88% # attempts to use FU when none available
system.switch_cpus0.iq.fu_full::SimdFloatDiv            0      0.00%     74.88% # attempts to use FU when none available
system.switch_cpus0.iq.fu_full::SimdFloatMisc            0      0.00%     74.88% # attempts to use FU when none available
system.switch_cpus0.iq.fu_full::SimdFloatMult            0      0.00%     74.88% # attempts to use FU when none available
system.switch_cpus0.iq.fu_full::SimdFloatMultAcc            0      0.00%     74.88% # attempts to use FU when none available
system.switch_cpus0.iq.fu_full::SimdFloatSqrt            0      0.00%     74.88% # attempts to use FU when none available
system.switch_cpus0.iq.fu_full::MemRead        155890     11.94%     86.82% # attempts to use FU when none available
system.switch_cpus0.iq.fu_full::MemWrite       172010     13.18%    100.00% # attempts to use FU when none available
system.switch_cpus0.iq.fu_full::IprAccess            0      0.00%    100.00% # attempts to use FU when none available
system.switch_cpus0.iq.fu_full::InstPrefetch            0      0.00%    100.00% # attempts to use FU when none available
system.switch_cpus0.iq.FU_type_0::No_OpClass            0      0.00%      0.00% # Type of FU issued
system.switch_cpus0.iq.FU_type_0::IntAlu    115001161     82.59%     82.59% # Type of FU issued
system.switch_cpus0.iq.FU_type_0::IntMult      2014027      1.45%     84.04% # Type of FU issued
system.switch_cpus0.iq.FU_type_0::IntDiv            0      0.00%     84.04% # Type of FU issued
system.switch_cpus0.iq.FU_type_0::FloatAdd            0      0.00%     84.04% # Type of FU issued
system.switch_cpus0.iq.FU_type_0::FloatCmp            0      0.00%     84.04% # Type of FU issued
system.switch_cpus0.iq.FU_type_0::FloatCvt            0      0.00%     84.04% # Type of FU issued
system.switch_cpus0.iq.FU_type_0::FloatMult            0      0.00%     84.04% # Type of FU issued
system.switch_cpus0.iq.FU_type_0::FloatDiv            0      0.00%     84.04% # Type of FU issued
system.switch_cpus0.iq.FU_type_0::FloatSqrt            0      0.00%     84.04% # Type of FU issued
system.switch_cpus0.iq.FU_type_0::SimdAdd            0      0.00%     84.04% # Type of FU issued
system.switch_cpus0.iq.FU_type_0::SimdAddAcc            0      0.00%     84.04% # Type of FU issued
system.switch_cpus0.iq.FU_type_0::SimdAlu            0      0.00%     84.04% # Type of FU issued
system.switch_cpus0.iq.FU_type_0::SimdCmp            0      0.00%     84.04% # Type of FU issued
system.switch_cpus0.iq.FU_type_0::SimdCvt            0      0.00%     84.04% # Type of FU issued
system.switch_cpus0.iq.FU_type_0::SimdMisc            0      0.00%     84.04% # Type of FU issued
system.switch_cpus0.iq.FU_type_0::SimdMult            0      0.00%     84.04% # Type of FU issued
system.switch_cpus0.iq.FU_type_0::SimdMultAcc            0      0.00%     84.04% # Type of FU issued
system.switch_cpus0.iq.FU_type_0::SimdShift            0      0.00%     84.04% # Type of FU issued
system.switch_cpus0.iq.FU_type_0::SimdShiftAcc            0      0.00%     84.04% # Type of FU issued
system.switch_cpus0.iq.FU_type_0::SimdSqrt            0      0.00%     84.04% # Type of FU issued
system.switch_cpus0.iq.FU_type_0::SimdFloatAdd            0      0.00%     84.04% # Type of FU issued
system.switch_cpus0.iq.FU_type_0::SimdFloatAlu            0      0.00%     84.04% # Type of FU issued
system.switch_cpus0.iq.FU_type_0::SimdFloatCmp            0      0.00%     84.04% # Type of FU issued
system.switch_cpus0.iq.FU_type_0::SimdFloatCvt            0      0.00%     84.04% # Type of FU issued
system.switch_cpus0.iq.FU_type_0::SimdFloatDiv            0      0.00%     84.04% # Type of FU issued
system.switch_cpus0.iq.FU_type_0::SimdFloatMisc        16022      0.01%     84.05% # Type of FU issued
system.switch_cpus0.iq.FU_type_0::SimdFloatMult            0      0.00%     84.05% # Type of FU issued
system.switch_cpus0.iq.FU_type_0::SimdFloatMultAcc            0      0.00%     84.05% # Type of FU issued
system.switch_cpus0.iq.FU_type_0::SimdFloatSqrt            0      0.00%     84.05% # Type of FU issued
system.switch_cpus0.iq.FU_type_0::MemRead     14366799     10.32%     94.37% # Type of FU issued
system.switch_cpus0.iq.FU_type_0::MemWrite      7841531      5.63%    100.00% # Type of FU issued
system.switch_cpus0.iq.FU_type_0::IprAccess            0      0.00%    100.00% # Type of FU issued
system.switch_cpus0.iq.FU_type_0::InstPrefetch            0      0.00%    100.00% # Type of FU issued
system.switch_cpus0.iq.FU_type_0::total     139239540                       # Type of FU issued
system.switch_cpus0.iq.rate                  0.960940                       # Inst issue rate
system.switch_cpus0.iq.fu_busy_cnt            1305144                       # FU busy when requested
system.switch_cpus0.iq.fu_busy_rate          0.009373                       # FU busy rate (busy events/executed inst)
system.switch_cpus0.iq.int_inst_queue_reads    421502457                       # Number of integer instruction queue reads
system.switch_cpus0.iq.int_inst_queue_writes    174450130                       # Number of integer instruction queue writes
system.switch_cpus0.iq.int_inst_queue_wakeup_accesses    135123575                       # Number of integer instruction queue wakeup accesses
system.switch_cpus0.iq.fp_inst_queue_reads            0                       # Number of floating instruction queue reads
system.switch_cpus0.iq.fp_inst_queue_writes            0                       # Number of floating instruction queue writes
system.switch_cpus0.iq.fp_inst_queue_wakeup_accesses            0                       # Number of floating instruction queue wakeup accesses
system.switch_cpus0.iq.int_alu_accesses     140544684                       # Number of integer alu accesses
system.switch_cpus0.iq.fp_alu_accesses              0                       # Number of floating point alu accesses
system.switch_cpus0.iew.lsq.thread0.forwLoads       202461                       # Number of loads that had data forwarded from stores
system.switch_cpus0.iew.lsq.thread0.invAddrLoads            0                       # Number of loads ignored due to an invalid address
system.switch_cpus0.iew.lsq.thread0.squashedLoads      2977627                       # Number of loads squashed
system.switch_cpus0.iew.lsq.thread0.ignoredResponses         1007                       # Number of memory responses ignored because the instruction is squashed
system.switch_cpus0.iew.lsq.thread0.memOrderViolation          680                       # Number of memory ordering violations
system.switch_cpus0.iew.lsq.thread0.squashedStores       155087                       # Number of stores squashed
system.switch_cpus0.iew.lsq.thread0.invAddrSwpfs            0                       # Number of software prefetches ignored due to an invalid address
system.switch_cpus0.iew.lsq.thread0.blockedLoads            0                       # Number of blocked loads due to partial load-store forwarding
system.switch_cpus0.iew.lsq.thread0.rescheduledLoads          588                       # Number of loads that were rescheduled
system.switch_cpus0.iew.lsq.thread0.cacheBlocked            0                       # Number of times an access to memory failed due to the cache being blocked
system.switch_cpus0.iew.iewIdleCycles               0                       # Number of cycles IEW is idle
system.switch_cpus0.iew.iewSquashCycles       4293294                       # Number of cycles IEW is squashing
system.switch_cpus0.iew.iewBlockCycles        3695987                       # Number of cycles IEW is blocking
system.switch_cpus0.iew.iewUnblockCycles       254602                       # Number of cycles IEW is unblocking
system.switch_cpus0.iew.iewDispatchedInsts    149205951                       # Number of instructions dispatched to IQ
system.switch_cpus0.iew.iewDispSquashedInsts      1163416                       # Number of squashed instructions skipped by dispatch
system.switch_cpus0.iew.iewDispLoadInsts     15189756                       # Number of dispatched load instructions
system.switch_cpus0.iew.iewDispStoreInsts      7896757                       # Number of dispatched store instructions
system.switch_cpus0.iew.iewDispNonSpecInsts        17314                       # Number of dispatched non-speculative instructions
system.switch_cpus0.iew.iewIQFullEvents        203873                       # Number of times the IQ has become full, causing a stall
system.switch_cpus0.iew.iewLSQFullEvents        13143                       # Number of times the LSQ has become full, causing a stall
system.switch_cpus0.iew.memOrderViolationEvents          680                       # Number of memory order violations
system.switch_cpus0.iew.predictedTakenIncorrect      1150775                       # Number of branches that were predicted taken incorrectly
system.switch_cpus0.iew.predictedNotTakenIncorrect      1084483                       # Number of branches that were predicted not taken incorrectly
system.switch_cpus0.iew.branchMispredicts      2235258                       # Number of branch mispredicts detected at execute
system.switch_cpus0.iew.iewExecutedInsts    136866797                       # Number of executed instructions
system.switch_cpus0.iew.iewExecLoadInsts     14116017                       # Number of load instructions executed
system.switch_cpus0.iew.iewExecSquashedInsts      2372743                       # Number of squashed instructions skipped in execute
system.switch_cpus0.iew.exec_swp                    0                       # number of swp insts executed
system.switch_cpus0.iew.exec_nop                    0                       # number of nop insts executed
system.switch_cpus0.iew.exec_refs            21955735                       # number of memory reference insts executed
system.switch_cpus0.iew.exec_branches        19295550                       # Number of branches executed
system.switch_cpus0.iew.exec_stores           7839718                       # Number of stores executed
system.switch_cpus0.iew.exec_rate            0.944565                       # Inst execution rate
system.switch_cpus0.iew.wb_sent             135129517                       # cumulative count of insts sent to commit
system.switch_cpus0.iew.wb_count            135123575                       # cumulative count of insts written-back
system.switch_cpus0.iew.wb_producers         81558108                       # num instructions producing a value
system.switch_cpus0.iew.wb_consumers        221248358                       # num instructions consuming a value
system.switch_cpus0.iew.wb_penalized                0                       # number of instrctions required to write to 'other' IQ
system.switch_cpus0.iew.wb_rate              0.932535                       # insts written-back per cycle
system.switch_cpus0.iew.wb_fanout            0.368627                       # average fanout of values written-back
system.switch_cpus0.iew.wb_penalized_rate            0                       # fraction of instructions written-back that wrote to 'other' IQ
system.switch_cpus0.commit.commitCommittedInsts    100000000                       # The number of committed instructions
system.switch_cpus0.commit.commitCommittedOps    122421916                       # The number of committed instructions
system.switch_cpus0.commit.commitSquashedInsts     26792178                       # The number of squashed insts skipped by commit
system.switch_cpus0.commit.commitNonSpecStalls        32044                       # The number of times commit has been forced to stall to communicate backwards
system.switch_cpus0.commit.branchMispredicts      1957615                       # The number of times a branch was mispredicted
system.switch_cpus0.commit.committed_per_cycle::samples    137317269                       # Number of insts commited each cycle
system.switch_cpus0.commit.committed_per_cycle::mean     0.891526                       # Number of insts commited each cycle
system.switch_cpus0.commit.committed_per_cycle::stdev     1.708905                       # Number of insts commited each cycle
system.switch_cpus0.commit.committed_per_cycle::underflows            0      0.00%      0.00% # Number of insts commited each cycle
system.switch_cpus0.commit.committed_per_cycle::0     88218771     64.24%     64.24% # Number of insts commited each cycle
system.switch_cpus0.commit.committed_per_cycle::1     22503796     16.39%     80.63% # Number of insts commited each cycle
system.switch_cpus0.commit.committed_per_cycle::2     10809870      7.87%     88.50% # Number of insts commited each cycle
system.switch_cpus0.commit.committed_per_cycle::3      4818327      3.51%     92.01% # Number of insts commited each cycle
system.switch_cpus0.commit.committed_per_cycle::4      3764915      2.74%     94.76% # Number of insts commited each cycle
system.switch_cpus0.commit.committed_per_cycle::5      1536706      1.12%     95.87% # Number of insts commited each cycle
system.switch_cpus0.commit.committed_per_cycle::6      1561837      1.14%     97.01% # Number of insts commited each cycle
system.switch_cpus0.commit.committed_per_cycle::7      1095189      0.80%     97.81% # Number of insts commited each cycle
system.switch_cpus0.commit.committed_per_cycle::8      3007858      2.19%    100.00% # Number of insts commited each cycle
system.switch_cpus0.commit.committed_per_cycle::overflows            0      0.00%    100.00% # Number of insts commited each cycle
system.switch_cpus0.commit.committed_per_cycle::min_value            0                       # Number of insts commited each cycle
system.switch_cpus0.commit.committed_per_cycle::max_value            8                       # Number of insts commited each cycle
system.switch_cpus0.commit.committed_per_cycle::total    137317269                       # Number of insts commited each cycle
system.switch_cpus0.commit.committedInsts    100000000                       # Number of instructions committed
system.switch_cpus0.commit.committedOps     122421916                       # Number of ops (including micro ops) committed
system.switch_cpus0.commit.swp_count                0                       # Number of s/w prefetches committed
system.switch_cpus0.commit.refs              19953796                       # Number of memory references committed
system.switch_cpus0.commit.loads             12212126                       # Number of loads committed
system.switch_cpus0.commit.membars              16022                       # Number of memory barriers committed
system.switch_cpus0.commit.branches          17573934                       # Number of branches committed
system.switch_cpus0.commit.fp_insts                 0                       # Number of committed floating point instructions.
system.switch_cpus0.commit.int_insts        110146122                       # Number of committed integer instructions.
system.switch_cpus0.commit.function_calls      2413416                       # Number of function calls committed.
system.switch_cpus0.commit.bw_lim_events      3007858                       # number cycles where commit BW limit reached
system.switch_cpus0.commit.bw_limited               0                       # number of insts not committed due to BW limits
system.switch_cpus0.rob.rob_reads           283523505                       # The number of ROB reads
system.switch_cpus0.rob.rob_writes          302721691                       # The number of ROB writes
system.switch_cpus0.timesIdled                  57758                       # Number of times that the entire CPU went into an idle state and unscheduled itself
system.switch_cpus0.idleCycles                3288707                       # Total number of cycles that the CPU has spent unscheduled due to idling
system.switch_cpus0.committedInsts          100000000                       # Number of Instructions Simulated
system.switch_cpus0.committedOps            122421916                       # Number of Ops (including micro ops) Simulated
system.switch_cpus0.committedInsts_total    100000000                       # Number of Instructions Simulated
system.switch_cpus0.cpi                      1.448993                       # CPI: Cycles Per Instruction
system.switch_cpus0.cpi_total                1.448993                       # CPI: Total CPI of All Threads
system.switch_cpus0.ipc                      0.690135                       # IPC: Instructions Per Cycle
system.switch_cpus0.ipc_total                0.690135                       # IPC: Total IPC of All Threads
system.switch_cpus0.int_regfile_reads       618501968                       # number of integer regfile reads
system.switch_cpus0.int_regfile_writes      186459367                       # number of integer regfile writes
system.switch_cpus0.misc_regfile_reads      145856831                       # number of misc regfile reads
system.switch_cpus0.misc_regfile_writes         32044                       # number of misc regfile writes
system.switch_cpus1.dtb.inst_hits                   0                       # ITB inst hits
system.switch_cpus1.dtb.inst_misses                 0                       # ITB inst misses
system.switch_cpus1.dtb.read_hits                   0                       # DTB read hits
system.switch_cpus1.dtb.read_misses                 0                       # DTB read misses
system.switch_cpus1.dtb.write_hits                  0                       # DTB write hits
system.switch_cpus1.dtb.write_misses                0                       # DTB write misses
system.switch_cpus1.dtb.flush_tlb                   0                       # Number of times complete TLB was flushed
system.switch_cpus1.dtb.flush_tlb_mva               0                       # Number of times TLB was flushed by MVA
system.switch_cpus1.dtb.flush_tlb_mva_asid            0                       # Number of times TLB was flushed by MVA & ASID
system.switch_cpus1.dtb.flush_tlb_asid              0                       # Number of times TLB was flushed by ASID
system.switch_cpus1.dtb.flush_entries               0                       # Number of entries that have been flushed from TLB
system.switch_cpus1.dtb.align_faults                0                       # Number of TLB faults due to alignment restrictions
system.switch_cpus1.dtb.prefetch_faults             0                       # Number of TLB faults due to prefetch
system.switch_cpus1.dtb.domain_faults               0                       # Number of TLB faults due to domain restrictions
system.switch_cpus1.dtb.perms_faults                0                       # Number of TLB faults due to permissions restrictions
system.switch_cpus1.dtb.read_accesses               0                       # DTB read accesses
system.switch_cpus1.dtb.write_accesses              0                       # DTB write accesses
system.switch_cpus1.dtb.inst_accesses               0                       # ITB inst accesses
system.switch_cpus1.dtb.hits                        0                       # DTB hits
system.switch_cpus1.dtb.misses                      0                       # DTB misses
system.switch_cpus1.dtb.accesses                    0                       # DTB accesses
system.switch_cpus1.itb.inst_hits                   0                       # ITB inst hits
system.switch_cpus1.itb.inst_misses                 0                       # ITB inst misses
system.switch_cpus1.itb.read_hits                   0                       # DTB read hits
system.switch_cpus1.itb.read_misses                 0                       # DTB read misses
system.switch_cpus1.itb.write_hits                  0                       # DTB write hits
system.switch_cpus1.itb.write_misses                0                       # DTB write misses
system.switch_cpus1.itb.flush_tlb                   0                       # Number of times complete TLB was flushed
system.switch_cpus1.itb.flush_tlb_mva               0                       # Number of times TLB was flushed by MVA
system.switch_cpus1.itb.flush_tlb_mva_asid            0                       # Number of times TLB was flushed by MVA & ASID
system.switch_cpus1.itb.flush_tlb_asid              0                       # Number of times TLB was flushed by ASID
system.switch_cpus1.itb.flush_entries               0                       # Number of entries that have been flushed from TLB
system.switch_cpus1.itb.align_faults                0                       # Number of TLB faults due to alignment restrictions
system.switch_cpus1.itb.prefetch_faults             0                       # Number of TLB faults due to prefetch
system.switch_cpus1.itb.domain_faults               0                       # Number of TLB faults due to domain restrictions
system.switch_cpus1.itb.perms_faults                0                       # Number of TLB faults due to permissions restrictions
system.switch_cpus1.itb.read_accesses               0                       # DTB read accesses
system.switch_cpus1.itb.write_accesses              0                       # DTB write accesses
system.switch_cpus1.itb.inst_accesses               0                       # ITB inst accesses
system.switch_cpus1.itb.hits                        0                       # DTB hits
system.switch_cpus1.itb.misses                      0                       # DTB misses
system.switch_cpus1.itb.accesses                    0                       # DTB accesses
system.cpu1.workload.num_syscalls                   0                       # Number of system calls
system.switch_cpus1.numCycles               144899270                       # number of cpu cycles simulated
system.switch_cpus1.numWorkItemsStarted             0                       # number of work items this cpu started
system.switch_cpus1.numWorkItemsCompleted            0                       # number of work items this cpu completed
system.switch_cpus1.BPredUnit.lookups        21320997                       # Number of BP lookups
system.switch_cpus1.BPredUnit.condPredicted     18686872                       # Number of conditional branches predicted
system.switch_cpus1.BPredUnit.condIncorrect      1661317                       # Number of conditional branches incorrect
system.switch_cpus1.BPredUnit.BTBLookups     10621665                       # Number of BTB lookups
system.switch_cpus1.BPredUnit.BTBHits        10303762                       # Number of BTB hits
system.switch_cpus1.BPredUnit.BTBCorrect            0                       # Number of correct BTB predictions (this stat may not work properly.
system.switch_cpus1.BPredUnit.usedRAS         1483300                       # Number of times the RAS was used to get a target.
system.switch_cpus1.BPredUnit.RASInCorrect        52035                       # Number of incorrect RAS predictions.
system.switch_cpus1.fetch.icacheStallCycles    112490196                       # Number of cycles fetch is stalled on an Icache miss
system.switch_cpus1.fetch.Insts             118517467                       # Number of instructions fetch has processed
system.switch_cpus1.fetch.Branches           21320997                       # Number of branches that fetch encountered
system.switch_cpus1.fetch.predictedBranches     11787062                       # Number of branches that fetch has predicted taken
system.switch_cpus1.fetch.Cycles             24113593                       # Number of cycles fetch has run and was not squashing or blocked
system.switch_cpus1.fetch.SquashCycles        5434147                       # Number of cycles fetch has spent squashing
system.switch_cpus1.fetch.BlockedCycles       2068244                       # Number of cycles fetch has spent blocked
system.switch_cpus1.fetch.CacheLines         12820506                       # Number of cache lines fetched
system.switch_cpus1.fetch.IcacheSquashes      1046960                       # Number of outstanding Icache misses that were squashed
system.switch_cpus1.fetch.rateDist::samples    142435142                       # Number of instructions fetched each cycle (Total)
system.switch_cpus1.fetch.rateDist::mean     0.946239                       # Number of instructions fetched each cycle (Total)
system.switch_cpus1.fetch.rateDist::stdev     2.315093                       # Number of instructions fetched each cycle (Total)
system.switch_cpus1.fetch.rateDist::underflows            0      0.00%      0.00% # Number of instructions fetched each cycle (Total)
system.switch_cpus1.fetch.rateDist::0       118321549     83.07%     83.07% # Number of instructions fetched each cycle (Total)
system.switch_cpus1.fetch.rateDist::1         1212314      0.85%     83.92% # Number of instructions fetched each cycle (Total)
system.switch_cpus1.fetch.rateDist::2         2221379      1.56%     85.48% # Number of instructions fetched each cycle (Total)
system.switch_cpus1.fetch.rateDist::3         1864911      1.31%     86.79% # Number of instructions fetched each cycle (Total)
system.switch_cpus1.fetch.rateDist::4         3415424      2.40%     89.19% # Number of instructions fetched each cycle (Total)
system.switch_cpus1.fetch.rateDist::5         3696118      2.59%     91.78% # Number of instructions fetched each cycle (Total)
system.switch_cpus1.fetch.rateDist::6          805946      0.57%     92.35% # Number of instructions fetched each cycle (Total)
system.switch_cpus1.fetch.rateDist::7          630052      0.44%     92.79% # Number of instructions fetched each cycle (Total)
system.switch_cpus1.fetch.rateDist::8        10267449      7.21%    100.00% # Number of instructions fetched each cycle (Total)
system.switch_cpus1.fetch.rateDist::overflows            0      0.00%    100.00% # Number of instructions fetched each cycle (Total)
system.switch_cpus1.fetch.rateDist::min_value            0                       # Number of instructions fetched each cycle (Total)
system.switch_cpus1.fetch.rateDist::max_value            8                       # Number of instructions fetched each cycle (Total)
system.switch_cpus1.fetch.rateDist::total    142435142                       # Number of instructions fetched each cycle (Total)
system.switch_cpus1.fetch.branchRate         0.147144                       # Number of branch fetches per cycle
system.switch_cpus1.fetch.rate               0.817930                       # Number of inst fetches per cycle
system.switch_cpus1.decode.IdleCycles       111546919                       # Number of cycles decode is idle
system.switch_cpus1.decode.BlockedCycles      3195002                       # Number of cycles decode is blocked
system.switch_cpus1.decode.RunCycles         23911102                       # Number of cycles decode is running
system.switch_cpus1.decode.UnblockCycles        23963                       # Number of cycles decode is unblocking
system.switch_cpus1.decode.SquashCycles       3758155                       # Number of cycles decode is squashing
system.switch_cpus1.decode.BranchResolved      2286931                       # Number of times decode resolved a branch
system.switch_cpus1.decode.BranchMispred         4960                       # Number of times decode detected a branch misprediction
system.switch_cpus1.decode.DecodedInsts     133738134                       # Number of instructions handled by decode
system.switch_cpus1.decode.SquashedInsts         1321                       # Number of squashed instructions handled by decode
system.switch_cpus1.rename.SquashCycles       3758155                       # Number of cycles rename is squashing
system.switch_cpus1.rename.IdleCycles       111998391                       # Number of cycles rename is idle
system.switch_cpus1.rename.BlockCycles        1594444                       # Number of cycles rename is blocking
system.switch_cpus1.rename.serializeStallCycles       755736                       # count of cycles rename stalled for serializing inst
system.switch_cpus1.rename.RunCycles         23471906                       # Number of cycles rename is running
system.switch_cpus1.rename.UnblockCycles       856509                       # Number of cycles rename is unblocking
system.switch_cpus1.rename.RenamedInsts     132790267                       # Number of instructions processed by rename
system.switch_cpus1.rename.ROBFullEvents            6                       # Number of times rename has blocked due to ROB full
system.switch_cpus1.rename.IQFullEvents         85151                       # Number of times rename has blocked due to IQ full
system.switch_cpus1.rename.LSQFullEvents       537455                       # Number of times rename has blocked due to LSQ full
system.switch_cpus1.rename.RenamedOperands    176342007                       # Number of destination operands rename has renamed
system.switch_cpus1.rename.RenameLookups    602484212                       # Number of register rename lookups that rename has made
system.switch_cpus1.rename.int_rename_lookups    602484212                       # Number of integer rename lookups
system.switch_cpus1.rename.CommittedMaps    142275782                       # Number of HB maps that are committed
system.switch_cpus1.rename.UndoneMaps        34066207                       # Number of HB maps that are undone due to squashing
system.switch_cpus1.rename.serializingInsts        18958                       # count of serializing insts renamed
system.switch_cpus1.rename.tempSerializingInsts         9488                       # count of temporary serializing insts renamed
system.switch_cpus1.rename.skidInsts          2632281                       # count of insts added to the skid buffer
system.switch_cpus1.memDep0.insertedLoads     22125276                       # Number of loads inserted to the mem dependence unit.
system.switch_cpus1.memDep0.insertedStores      4289069                       # Number of stores inserted to the mem dependence unit.
system.switch_cpus1.memDep0.conflictingLoads        77262                       # Number of conflicting loads.
system.switch_cpus1.memDep0.conflictingStores       953976                       # Number of conflicting stores.
system.switch_cpus1.iq.iqInstsAdded         131248828                       # Number of instructions added to the IQ (excludes non-spec)
system.switch_cpus1.iq.iqNonSpecInstsAdded        18956                       # Number of non-speculative instructions added to the IQ
system.switch_cpus1.iq.iqInstsIssued        123333959                       # Number of instructions issued
system.switch_cpus1.iq.iqSquashedInstsIssued        99953                       # Number of squashed instructions issued
system.switch_cpus1.iq.iqSquashedInstsExamined     21761856                       # Number of squashed instructions iterated over during squash; mainly for profiling
system.switch_cpus1.iq.iqSquashedOperandsExamined     46557524                       # Number of squashed operands that are examined and possibly removed from graph
system.switch_cpus1.iq.iqSquashedNonSpecRemoved           20                       # Number of squashed non-spec instructions that were removed
system.switch_cpus1.iq.issued_per_cycle::samples    142435142                       # Number of insts issued each cycle
system.switch_cpus1.iq.issued_per_cycle::mean     0.865896                       # Number of insts issued each cycle
system.switch_cpus1.iq.issued_per_cycle::stdev     1.477310                       # Number of insts issued each cycle
system.switch_cpus1.iq.issued_per_cycle::underflows            0      0.00%      0.00% # Number of insts issued each cycle
system.switch_cpus1.iq.issued_per_cycle::0     91078398     63.94%     63.94% # Number of insts issued each cycle
system.switch_cpus1.iq.issued_per_cycle::1     20935042     14.70%     78.64% # Number of insts issued each cycle
system.switch_cpus1.iq.issued_per_cycle::2     10509007      7.38%     86.02% # Number of insts issued each cycle
system.switch_cpus1.iq.issued_per_cycle::3      6870479      4.82%     90.84% # Number of insts issued each cycle
system.switch_cpus1.iq.issued_per_cycle::4      7173776      5.04%     95.88% # Number of insts issued each cycle
system.switch_cpus1.iq.issued_per_cycle::5      3707939      2.60%     98.48% # Number of insts issued each cycle
system.switch_cpus1.iq.issued_per_cycle::6      1667536      1.17%     99.65% # Number of insts issued each cycle
system.switch_cpus1.iq.issued_per_cycle::7       414269      0.29%     99.94% # Number of insts issued each cycle
system.switch_cpus1.iq.issued_per_cycle::8        78696      0.06%    100.00% # Number of insts issued each cycle
system.switch_cpus1.iq.issued_per_cycle::overflows            0      0.00%    100.00% # Number of insts issued each cycle
system.switch_cpus1.iq.issued_per_cycle::min_value            0                       # Number of insts issued each cycle
system.switch_cpus1.iq.issued_per_cycle::max_value            8                       # Number of insts issued each cycle
system.switch_cpus1.iq.issued_per_cycle::total    142435142                       # Number of insts issued each cycle
system.switch_cpus1.iq.fu_full::No_OpClass            0      0.00%      0.00% # attempts to use FU when none available
system.switch_cpus1.iq.fu_full::IntAlu         311120     59.88%     59.88% # attempts to use FU when none available
system.switch_cpus1.iq.fu_full::IntMult             0      0.00%     59.88% # attempts to use FU when none available
system.switch_cpus1.iq.fu_full::IntDiv              0      0.00%     59.88% # attempts to use FU when none available
system.switch_cpus1.iq.fu_full::FloatAdd            0      0.00%     59.88% # attempts to use FU when none available
system.switch_cpus1.iq.fu_full::FloatCmp            0      0.00%     59.88% # attempts to use FU when none available
system.switch_cpus1.iq.fu_full::FloatCvt            0      0.00%     59.88% # attempts to use FU when none available
system.switch_cpus1.iq.fu_full::FloatMult            0      0.00%     59.88% # attempts to use FU when none available
system.switch_cpus1.iq.fu_full::FloatDiv            0      0.00%     59.88% # attempts to use FU when none available
system.switch_cpus1.iq.fu_full::FloatSqrt            0      0.00%     59.88% # attempts to use FU when none available
system.switch_cpus1.iq.fu_full::SimdAdd             0      0.00%     59.88% # attempts to use FU when none available
system.switch_cpus1.iq.fu_full::SimdAddAcc            0      0.00%     59.88% # attempts to use FU when none available
system.switch_cpus1.iq.fu_full::SimdAlu             0      0.00%     59.88% # attempts to use FU when none available
system.switch_cpus1.iq.fu_full::SimdCmp             0      0.00%     59.88% # attempts to use FU when none available
system.switch_cpus1.iq.fu_full::SimdCvt             0      0.00%     59.88% # attempts to use FU when none available
system.switch_cpus1.iq.fu_full::SimdMisc            0      0.00%     59.88% # attempts to use FU when none available
system.switch_cpus1.iq.fu_full::SimdMult            0      0.00%     59.88% # attempts to use FU when none available
system.switch_cpus1.iq.fu_full::SimdMultAcc            0      0.00%     59.88% # attempts to use FU when none available
system.switch_cpus1.iq.fu_full::SimdShift            0      0.00%     59.88% # attempts to use FU when none available
system.switch_cpus1.iq.fu_full::SimdShiftAcc            0      0.00%     59.88% # attempts to use FU when none available
system.switch_cpus1.iq.fu_full::SimdSqrt            0      0.00%     59.88% # attempts to use FU when none available
system.switch_cpus1.iq.fu_full::SimdFloatAdd            0      0.00%     59.88% # attempts to use FU when none available
system.switch_cpus1.iq.fu_full::SimdFloatAlu            0      0.00%     59.88% # attempts to use FU when none available
system.switch_cpus1.iq.fu_full::SimdFloatCmp            0      0.00%     59.88% # attempts to use FU when none available
system.switch_cpus1.iq.fu_full::SimdFloatCvt            0      0.00%     59.88% # attempts to use FU when none available
system.switch_cpus1.iq.fu_full::SimdFloatDiv            0      0.00%     59.88% # attempts to use FU when none available
system.switch_cpus1.iq.fu_full::SimdFloatMisc            0      0.00%     59.88% # attempts to use FU when none available
system.switch_cpus1.iq.fu_full::SimdFloatMult            0      0.00%     59.88% # attempts to use FU when none available
system.switch_cpus1.iq.fu_full::SimdFloatMultAcc            0      0.00%     59.88% # attempts to use FU when none available
system.switch_cpus1.iq.fu_full::SimdFloatSqrt            0      0.00%     59.88% # attempts to use FU when none available
system.switch_cpus1.iq.fu_full::MemRead        131494     25.31%     85.18% # attempts to use FU when none available
system.switch_cpus1.iq.fu_full::MemWrite        76984     14.82%    100.00% # attempts to use FU when none available
system.switch_cpus1.iq.fu_full::IprAccess            0      0.00%    100.00% # attempts to use FU when none available
system.switch_cpus1.iq.fu_full::InstPrefetch            0      0.00%    100.00% # attempts to use FU when none available
system.switch_cpus1.iq.FU_type_0::No_OpClass            0      0.00%      0.00% # Type of FU issued
system.switch_cpus1.iq.FU_type_0::IntAlu     97346633     78.93%     78.93% # Type of FU issued
system.switch_cpus1.iq.FU_type_0::IntMult      1032512      0.84%     79.77% # Type of FU issued
system.switch_cpus1.iq.FU_type_0::IntDiv            0      0.00%     79.77% # Type of FU issued
system.switch_cpus1.iq.FU_type_0::FloatAdd            0      0.00%     79.77% # Type of FU issued
system.switch_cpus1.iq.FU_type_0::FloatCmp            0      0.00%     79.77% # Type of FU issued
system.switch_cpus1.iq.FU_type_0::FloatCvt            0      0.00%     79.77% # Type of FU issued
system.switch_cpus1.iq.FU_type_0::FloatMult            0      0.00%     79.77% # Type of FU issued
system.switch_cpus1.iq.FU_type_0::FloatDiv            0      0.00%     79.77% # Type of FU issued
system.switch_cpus1.iq.FU_type_0::FloatSqrt            0      0.00%     79.77% # Type of FU issued
system.switch_cpus1.iq.FU_type_0::SimdAdd            0      0.00%     79.77% # Type of FU issued
system.switch_cpus1.iq.FU_type_0::SimdAddAcc            0      0.00%     79.77% # Type of FU issued
system.switch_cpus1.iq.FU_type_0::SimdAlu            0      0.00%     79.77% # Type of FU issued
system.switch_cpus1.iq.FU_type_0::SimdCmp            0      0.00%     79.77% # Type of FU issued
system.switch_cpus1.iq.FU_type_0::SimdCvt            0      0.00%     79.77% # Type of FU issued
system.switch_cpus1.iq.FU_type_0::SimdMisc            0      0.00%     79.77% # Type of FU issued
system.switch_cpus1.iq.FU_type_0::SimdMult            0      0.00%     79.77% # Type of FU issued
system.switch_cpus1.iq.FU_type_0::SimdMultAcc            0      0.00%     79.77% # Type of FU issued
system.switch_cpus1.iq.FU_type_0::SimdShift            0      0.00%     79.77% # Type of FU issued
system.switch_cpus1.iq.FU_type_0::SimdShiftAcc            0      0.00%     79.77% # Type of FU issued
system.switch_cpus1.iq.FU_type_0::SimdSqrt            0      0.00%     79.77% # Type of FU issued
system.switch_cpus1.iq.FU_type_0::SimdFloatAdd            0      0.00%     79.77% # Type of FU issued
system.switch_cpus1.iq.FU_type_0::SimdFloatAlu            0      0.00%     79.77% # Type of FU issued
system.switch_cpus1.iq.FU_type_0::SimdFloatCmp            0      0.00%     79.77% # Type of FU issued
system.switch_cpus1.iq.FU_type_0::SimdFloatCvt            0      0.00%     79.77% # Type of FU issued
system.switch_cpus1.iq.FU_type_0::SimdFloatDiv            0      0.00%     79.77% # Type of FU issued
system.switch_cpus1.iq.FU_type_0::SimdFloatMisc         9470      0.01%     79.77% # Type of FU issued
system.switch_cpus1.iq.FU_type_0::SimdFloatMult            0      0.00%     79.77% # Type of FU issued
system.switch_cpus1.iq.FU_type_0::SimdFloatMultAcc            0      0.00%     79.77% # Type of FU issued
system.switch_cpus1.iq.FU_type_0::SimdFloatSqrt            0      0.00%     79.77% # Type of FU issued
system.switch_cpus1.iq.FU_type_0::MemRead     20688258     16.77%     96.55% # Type of FU issued
system.switch_cpus1.iq.FU_type_0::MemWrite      4257086      3.45%    100.00% # Type of FU issued
system.switch_cpus1.iq.FU_type_0::IprAccess            0      0.00%    100.00% # Type of FU issued
system.switch_cpus1.iq.FU_type_0::InstPrefetch            0      0.00%    100.00% # Type of FU issued
system.switch_cpus1.iq.FU_type_0::total     123333959                       # Type of FU issued
system.switch_cpus1.iq.rate                  0.851170                       # Inst issue rate
system.switch_cpus1.iq.fu_busy_cnt             519598                       # FU busy when requested
system.switch_cpus1.iq.fu_busy_rate          0.004213                       # FU busy rate (busy events/executed inst)
system.switch_cpus1.iq.int_inst_queue_reads    389722611                       # Number of integer instruction queue reads
system.switch_cpus1.iq.int_inst_queue_writes    153029944                       # Number of integer instruction queue writes
system.switch_cpus1.iq.int_inst_queue_wakeup_accesses    120551817                       # Number of integer instruction queue wakeup accesses
system.switch_cpus1.iq.fp_inst_queue_reads            0                       # Number of floating instruction queue reads
system.switch_cpus1.iq.fp_inst_queue_writes            0                       # Number of floating instruction queue writes
system.switch_cpus1.iq.fp_inst_queue_wakeup_accesses            0                       # Number of floating instruction queue wakeup accesses
system.switch_cpus1.iq.int_alu_accesses     123853557                       # Number of integer alu accesses
system.switch_cpus1.iq.fp_alu_accesses              0                       # Number of floating point alu accesses
system.switch_cpus1.iew.lsq.thread0.forwLoads       229066                       # Number of loads that had data forwarded from stores
system.switch_cpus1.iew.lsq.thread0.invAddrLoads            0                       # Number of loads ignored due to an invalid address
system.switch_cpus1.iew.lsq.thread0.squashedLoads      4009999                       # Number of loads squashed
system.switch_cpus1.iew.lsq.thread0.ignoredResponses           65                       # Number of memory responses ignored because the instruction is squashed
system.switch_cpus1.iew.lsq.thread0.memOrderViolation          304                       # Number of memory ordering violations
system.switch_cpus1.iew.lsq.thread0.squashedStores       129990                       # Number of stores squashed
system.switch_cpus1.iew.lsq.thread0.invAddrSwpfs            0                       # Number of software prefetches ignored due to an invalid address
system.switch_cpus1.iew.lsq.thread0.blockedLoads            0                       # Number of blocked loads due to partial load-store forwarding
system.switch_cpus1.iew.lsq.thread0.rescheduledLoads            0                       # Number of loads that were rescheduled
system.switch_cpus1.iew.lsq.thread0.cacheBlocked            0                       # Number of times an access to memory failed due to the cache being blocked
system.switch_cpus1.iew.iewIdleCycles               0                       # Number of cycles IEW is idle
system.switch_cpus1.iew.iewSquashCycles       3758155                       # Number of cycles IEW is squashing
system.switch_cpus1.iew.iewBlockCycles        1053421                       # Number of cycles IEW is blocking
system.switch_cpus1.iew.iewUnblockCycles        51250                       # Number of cycles IEW is unblocking
system.switch_cpus1.iew.iewDispatchedInsts    131267784                       # Number of instructions dispatched to IQ
system.switch_cpus1.iew.iewDispSquashedInsts        46688                       # Number of squashed instructions skipped by dispatch
system.switch_cpus1.iew.iewDispLoadInsts     22125276                       # Number of dispatched load instructions
system.switch_cpus1.iew.iewDispStoreInsts      4289069                       # Number of dispatched store instructions
system.switch_cpus1.iew.iewDispNonSpecInsts         9488                       # Number of dispatched non-speculative instructions
system.switch_cpus1.iew.iewIQFullEvents         32591                       # Number of times the IQ has become full, causing a stall
system.switch_cpus1.iew.iewLSQFullEvents          207                       # Number of times the LSQ has become full, causing a stall
system.switch_cpus1.iew.memOrderViolationEvents          304                       # Number of memory order violations
system.switch_cpus1.iew.predictedTakenIncorrect       806495                       # Number of branches that were predicted taken incorrectly
system.switch_cpus1.iew.predictedNotTakenIncorrect       984753                       # Number of branches that were predicted not taken incorrectly
system.switch_cpus1.iew.branchMispredicts      1791248                       # Number of branch mispredicts detected at execute
system.switch_cpus1.iew.iewExecutedInsts    122009383                       # Number of executed instructions
system.switch_cpus1.iew.iewExecLoadInsts     20369958                       # Number of load instructions executed
system.switch_cpus1.iew.iewExecSquashedInsts      1324576                       # Number of squashed instructions skipped in execute
system.switch_cpus1.iew.exec_swp                    0                       # number of swp insts executed
system.switch_cpus1.iew.exec_nop                    0                       # number of nop insts executed
system.switch_cpus1.iew.exec_refs            24626889                       # number of memory reference insts executed
system.switch_cpus1.iew.exec_branches        18797463                       # Number of branches executed
system.switch_cpus1.iew.exec_stores           4256931                       # Number of stores executed
system.switch_cpus1.iew.exec_rate            0.842029                       # Inst execution rate
system.switch_cpus1.iew.wb_sent             120659767                       # cumulative count of insts sent to commit
system.switch_cpus1.iew.wb_count            120551817                       # cumulative count of insts written-back
system.switch_cpus1.iew.wb_producers         69622739                       # num instructions producing a value
system.switch_cpus1.iew.wb_consumers        165226764                       # num instructions consuming a value
system.switch_cpus1.iew.wb_penalized                0                       # number of instrctions required to write to 'other' IQ
system.switch_cpus1.iew.wb_rate              0.831970                       # insts written-back per cycle
system.switch_cpus1.iew.wb_fanout            0.421377                       # average fanout of values written-back
system.switch_cpus1.iew.wb_penalized_rate            0                       # fraction of instructions written-back that wrote to 'other' IQ
system.switch_cpus1.commit.commitCommittedInsts     95590936                       # The number of committed instructions
system.switch_cpus1.commit.commitCommittedOps    108582827                       # The number of committed instructions
system.switch_cpus1.commit.commitSquashedInsts     22685952                       # The number of squashed insts skipped by commit
system.switch_cpus1.commit.commitNonSpecStalls        18936                       # The number of times commit has been forced to stall to communicate backwards
system.switch_cpus1.commit.branchMispredicts      1665855                       # The number of times a branch was mispredicted
system.switch_cpus1.commit.committed_per_cycle::samples    138676987                       # Number of insts commited each cycle
system.switch_cpus1.commit.committed_per_cycle::mean     0.782991                       # Number of insts commited each cycle
[...]
system.cpu3.icache.ReadReq_avg_miss_latency::total 182148.687500                       # average ReadReq miss latency
system.cpu3.icache.demand_avg_miss_latency::switch_cpus3.inst 182148.687500                       # average overall miss latency
system.cpu3.icache.demand_avg_miss_latency::total 182148.687500                       # average overall miss latency
system.cpu3.icache.overall_avg_miss_latency::switch_cpus3.inst 182148.687500                       # average overall miss latency
system.cpu3.icache.overall_avg_miss_latency::total 182148.687500                       # average overall miss latency
system.cpu3.icache.blocked_cycles::no_mshrs            0                       # number of cycles access was blocked
system.cpu3.icache.blocked_cycles::no_targets            0                       # number of cycles access was blocked
system.cpu3.icache.blocked::no_mshrs                0                       # number of cycles access was blocked
system.cpu3.icache.blocked::no_targets              0                       # number of cycles access was blocked
system.cpu3.icache.avg_blocked_cycles::no_mshrs          nan                       # average number of cycles each access was blocked
system.cpu3.icache.avg_blocked_cycles::no_targets          nan                       # average number of cycles each access was blocked
system.cpu3.icache.fast_writes                      0                       # number of fast writes performed
system.cpu3.icache.cache_copies                     0                       # number of cache copies performed
system.cpu3.icache.ReadReq_mshr_hits::switch_cpus3.inst            2                       # number of ReadReq MSHR hits
system.cpu3.icache.ReadReq_mshr_hits::total            2                       # number of ReadReq MSHR hits
system.cpu3.icache.demand_mshr_hits::switch_cpus3.inst            2                       # number of demand (read+write) MSHR hits
system.cpu3.icache.demand_mshr_hits::total            2                       # number of demand (read+write) MSHR hits
system.cpu3.icache.overall_mshr_hits::switch_cpus3.inst            2                       # number of overall MSHR hits
system.cpu3.icache.overall_mshr_hits::total            2                       # number of overall MSHR hits
system.cpu3.icache.ReadReq_mshr_misses::switch_cpus3.inst           14                       # number of ReadReq MSHR misses
system.cpu3.icache.ReadReq_mshr_misses::total           14                       # number of ReadReq MSHR misses
system.cpu3.icache.demand_mshr_misses::switch_cpus3.inst           14                       # number of demand (read+write) MSHR misses
system.cpu3.icache.demand_mshr_misses::total           14                       # number of demand (read+write) MSHR misses
system.cpu3.icache.overall_mshr_misses::switch_cpus3.inst           14                       # number of overall MSHR misses
system.cpu3.icache.overall_mshr_misses::total           14                       # number of overall MSHR misses
system.cpu3.icache.ReadReq_mshr_miss_latency::switch_cpus3.inst      2496635                       # number of ReadReq MSHR miss cycles
system.cpu3.icache.ReadReq_mshr_miss_latency::total      2496635                       # number of ReadReq MSHR miss cycles
system.cpu3.icache.demand_mshr_miss_latency::switch_cpus3.inst      2496635                       # number of demand (read+write) MSHR miss cycles
system.cpu3.icache.demand_mshr_miss_latency::total      2496635                       # number of demand (read+write) MSHR miss cycles
system.cpu3.icache.overall_mshr_miss_latency::switch_cpus3.inst      2496635                       # number of overall MSHR miss cycles
system.cpu3.icache.overall_mshr_miss_latency::total      2496635                       # number of overall MSHR miss cycles
system.cpu3.icache.ReadReq_mshr_miss_rate::switch_cpus3.inst     0.000001                       # mshr miss rate for ReadReq accesses
system.cpu3.icache.ReadReq_mshr_miss_rate::total     0.000001                       # mshr miss rate for ReadReq accesses
system.cpu3.icache.demand_mshr_miss_rate::switch_cpus3.inst     0.000001                       # mshr miss rate for demand accesses
system.cpu3.icache.demand_mshr_miss_rate::total     0.000001                       # mshr miss rate for demand accesses
system.cpu3.icache.overall_mshr_miss_rate::switch_cpus3.inst     0.000001                       # mshr miss rate for overall accesses
system.cpu3.icache.overall_mshr_miss_rate::total     0.000001                       # mshr miss rate for overall accesses
system.cpu3.icache.ReadReq_avg_mshr_miss_latency::switch_cpus3.inst 178331.071429                       # average ReadReq mshr miss latency
system.cpu3.icache.ReadReq_avg_mshr_miss_latency::total 178331.071429                       # average ReadReq mshr miss latency
system.cpu3.icache.demand_avg_mshr_miss_latency::switch_cpus3.inst 178331.071429                       # average overall mshr miss latency
system.cpu3.icache.demand_avg_mshr_miss_latency::total 178331.071429                       # average overall mshr miss latency
system.cpu3.icache.overall_avg_mshr_miss_latency::switch_cpus3.inst 178331.071429                       # average overall mshr miss latency
system.cpu3.icache.overall_avg_mshr_miss_latency::total 178331.071429                       # average overall mshr miss latency
system.cpu3.icache.no_allocate_misses               0                       # Number of misses that were no-allocate
system.cpu3.dcache.replacements                 51087                       # number of replacements
system.cpu3.dcache.tagsinuse                      256                       # Cycle average of tags in use
system.cpu3.dcache.total_refs               172428144                       # Total number of references to valid blocks.
system.cpu3.dcache.sampled_refs                 51343                       # Sample count of references to valid blocks.
system.cpu3.dcache.avg_refs               3358.357400                       # Average number of references to valid blocks.
system.cpu3.dcache.warmup_cycle                     0                       # Cycle when the warmup percentage was hit.
system.cpu3.dcache.occ_blocks::switch_cpus3.data   233.211429                       # Average occupied blocks per requestor
system.cpu3.dcache.occ_blocks::cpu3.data    22.788571                       # Average occupied blocks per requestor
system.cpu3.dcache.occ_percent::switch_cpus3.data     0.910982                       # Average percentage of cache occupancy
system.cpu3.dcache.occ_percent::cpu3.data     0.089018                       # Average percentage of cache occupancy
system.cpu3.dcache.occ_percent::total               1                       # Average percentage of cache occupancy
system.cpu3.dcache.ReadReq_hits::switch_cpus3.data      8912007                       # number of ReadReq hits
system.cpu3.dcache.ReadReq_hits::total        8912007                       # number of ReadReq hits
system.cpu3.dcache.WriteReq_hits::switch_cpus3.data      7013542                       # number of WriteReq hits
system.cpu3.dcache.WriteReq_hits::total       7013542                       # number of WriteReq hits
system.cpu3.dcache.LoadLockedReq_hits::switch_cpus3.data        17164                       # number of LoadLockedReq hits
system.cpu3.dcache.LoadLockedReq_hits::total        17164                       # number of LoadLockedReq hits
system.cpu3.dcache.StoreCondReq_hits::switch_cpus3.data        16270                       # number of StoreCondReq hits
system.cpu3.dcache.StoreCondReq_hits::total        16270                       # number of StoreCondReq hits
system.cpu3.dcache.demand_hits::switch_cpus3.data     15925549                       # number of demand (read+write) hits
system.cpu3.dcache.demand_hits::total        15925549                       # number of demand (read+write) hits
system.cpu3.dcache.overall_hits::switch_cpus3.data     15925549                       # number of overall hits
system.cpu3.dcache.overall_hits::total       15925549                       # number of overall hits
system.cpu3.dcache.ReadReq_misses::switch_cpus3.data       148317                       # number of ReadReq misses
system.cpu3.dcache.ReadReq_misses::total       148317                       # number of ReadReq misses
system.cpu3.dcache.WriteReq_misses::switch_cpus3.data         2791                       # number of WriteReq misses
system.cpu3.dcache.WriteReq_misses::total         2791                       # number of WriteReq misses
system.cpu3.dcache.demand_misses::switch_cpus3.data       151108                       # number of demand (read+write) misses
system.cpu3.dcache.demand_misses::total        151108                       # number of demand (read+write) misses
system.cpu3.dcache.overall_misses::switch_cpus3.data       151108                       # number of overall misses
system.cpu3.dcache.overall_misses::total       151108                       # number of overall misses
system.cpu3.dcache.ReadReq_miss_latency::switch_cpus3.data  20834595297                       # number of ReadReq miss cycles
system.cpu3.dcache.ReadReq_miss_latency::total  20834595297                       # number of ReadReq miss cycles
system.cpu3.dcache.WriteReq_miss_latency::switch_cpus3.data    483624520                       # number of WriteReq miss cycles
system.cpu3.dcache.WriteReq_miss_latency::total    483624520                       # number of WriteReq miss cycles
system.cpu3.dcache.demand_miss_latency::switch_cpus3.data  21318219817                       # number of demand (read+write) miss cycles
system.cpu3.dcache.demand_miss_latency::total  21318219817                       # number of demand (read+write) miss cycles
system.cpu3.dcache.overall_miss_latency::switch_cpus3.data  21318219817                       # number of overall miss cycles
system.cpu3.dcache.overall_miss_latency::total  21318219817                       # number of overall miss cycles
system.cpu3.dcache.ReadReq_accesses::switch_cpus3.data      9060324                       # number of ReadReq accesses(hits+misses)
system.cpu3.dcache.ReadReq_accesses::total      9060324                       # number of ReadReq accesses(hits+misses)
system.cpu3.dcache.WriteReq_accesses::switch_cpus3.data      7016333                       # number of WriteReq accesses(hits+misses)
system.cpu3.dcache.WriteReq_accesses::total      7016333                       # number of WriteReq accesses(hits+misses)
system.cpu3.dcache.LoadLockedReq_accesses::switch_cpus3.data        17164                       # number of LoadLockedReq accesses(hits+misses)
system.cpu3.dcache.LoadLockedReq_accesses::total        17164                       # number of LoadLockedReq accesses(hits+misses)
system.cpu3.dcache.StoreCondReq_accesses::switch_cpus3.data        16270                       # number of StoreCondReq accesses(hits+misses)
system.cpu3.dcache.StoreCondReq_accesses::total        16270                       # number of StoreCondReq accesses(hits+misses)
system.cpu3.dcache.demand_accesses::switch_cpus3.data     16076657                       # number of demand (read+write) accesses
system.cpu3.dcache.demand_accesses::total     16076657                       # number of demand (read+write) accesses
system.cpu3.dcache.overall_accesses::switch_cpus3.data     16076657                       # number of overall (read+write) accesses
system.cpu3.dcache.overall_accesses::total     16076657                       # number of overall (read+write) accesses
system.cpu3.dcache.ReadReq_miss_rate::switch_cpus3.data     0.016370                       # miss rate for ReadReq accesses
system.cpu3.dcache.ReadReq_miss_rate::total     0.016370                       # miss rate for ReadReq accesses
system.cpu3.dcache.WriteReq_miss_rate::switch_cpus3.data     0.000398                       # miss rate for WriteReq accesses
system.cpu3.dcache.WriteReq_miss_rate::total     0.000398                       # miss rate for WriteReq accesses
system.cpu3.dcache.demand_miss_rate::switch_cpus3.data     0.009399                       # miss rate for demand accesses
system.cpu3.dcache.demand_miss_rate::total     0.009399                       # miss rate for demand accesses
system.cpu3.dcache.overall_miss_rate::switch_cpus3.data     0.009399                       # miss rate for overall accesses
system.cpu3.dcache.overall_miss_rate::total     0.009399                       # miss rate for overall accesses
system.cpu3.dcache.ReadReq_avg_miss_latency::switch_cpus3.data 140473.413682                       # average ReadReq miss latency
system.cpu3.dcache.ReadReq_avg_miss_latency::total 140473.413682                       # average ReadReq miss latency
system.cpu3.dcache.WriteReq_avg_miss_latency::switch_cpus3.data 173280.014332                       # average WriteReq miss latency
system.cpu3.dcache.WriteReq_avg_miss_latency::total 173280.014332                       # average WriteReq miss latency
system.cpu3.dcache.demand_avg_miss_latency::switch_cpus3.data 141079.359246                       # average overall miss latency
system.cpu3.dcache.demand_avg_miss_latency::total 141079.359246                       # average overall miss latency
system.cpu3.dcache.overall_avg_miss_latency::switch_cpus3.data 141079.359246                       # average overall miss latency
system.cpu3.dcache.overall_avg_miss_latency::total 141079.359246                       # average overall miss latency
system.cpu3.dcache.blocked_cycles::no_mshrs            0                       # number of cycles access was blocked
system.cpu3.dcache.blocked_cycles::no_targets      1542135                       # number of cycles access was blocked
system.cpu3.dcache.blocked::no_mshrs                0                       # number of cycles access was blocked
system.cpu3.dcache.blocked::no_targets             12                       # number of cycles access was blocked
system.cpu3.dcache.avg_blocked_cycles::no_mshrs          nan                       # average number of cycles each access was blocked
system.cpu3.dcache.avg_blocked_cycles::no_targets 128511.250000                       # average number of cycles each access was blocked
system.cpu3.dcache.fast_writes                      0                       # number of fast writes performed
system.cpu3.dcache.cache_copies                     0                       # number of cache copies performed
system.cpu3.dcache.writebacks::writebacks        17726                       # number of writebacks
system.cpu3.dcache.writebacks::total            17726                       # number of writebacks
system.cpu3.dcache.ReadReq_mshr_hits::switch_cpus3.data        97237                       # number of ReadReq MSHR hits
system.cpu3.dcache.ReadReq_mshr_hits::total        97237                       # number of ReadReq MSHR hits
system.cpu3.dcache.WriteReq_mshr_hits::switch_cpus3.data         2784                       # number of WriteReq MSHR hits
system.cpu3.dcache.WriteReq_mshr_hits::total         2784                       # number of WriteReq MSHR hits
system.cpu3.dcache.demand_mshr_hits::switch_cpus3.data       100021                       # number of demand (read+write) MSHR hits
system.cpu3.dcache.demand_mshr_hits::total       100021                       # number of demand (read+write) MSHR hits
system.cpu3.dcache.overall_mshr_hits::switch_cpus3.data       100021                       # number of overall MSHR hits
system.cpu3.dcache.overall_mshr_hits::total       100021                       # number of overall MSHR hits
system.cpu3.dcache.ReadReq_mshr_misses::switch_cpus3.data        51080                       # number of ReadReq MSHR misses
system.cpu3.dcache.ReadReq_mshr_misses::total        51080                       # number of ReadReq MSHR misses
system.cpu3.dcache.WriteReq_mshr_misses::switch_cpus3.data            7                       # number of WriteReq MSHR misses
system.cpu3.dcache.WriteReq_mshr_misses::total            7                       # number of WriteReq MSHR misses
system.cpu3.dcache.demand_mshr_misses::switch_cpus3.data        51087                       # number of demand (read+write) MSHR misses
system.cpu3.dcache.demand_mshr_misses::total        51087                       # number of demand (read+write) MSHR misses
system.cpu3.dcache.overall_mshr_misses::switch_cpus3.data        51087                       # number of overall MSHR misses
system.cpu3.dcache.overall_mshr_misses::total        51087                       # number of overall MSHR misses
system.cpu3.dcache.ReadReq_mshr_miss_latency::switch_cpus3.data   6210606299                       # number of ReadReq MSHR miss cycles
system.cpu3.dcache.ReadReq_mshr_miss_latency::total   6210606299                       # number of ReadReq MSHR miss cycles
system.cpu3.dcache.WriteReq_mshr_miss_latency::switch_cpus3.data      1350873                       # number of WriteReq MSHR miss cycles
system.cpu3.dcache.WriteReq_mshr_miss_latency::total      1350873                       # number of WriteReq MSHR miss cycles
system.cpu3.dcache.demand_mshr_miss_latency::switch_cpus3.data   6211957172                       # number of demand (read+write) MSHR miss cycles
system.cpu3.dcache.demand_mshr_miss_latency::total   6211957172                       # number of demand (read+write) MSHR miss cycles
system.cpu3.dcache.overall_mshr_miss_latency::switch_cpus3.data   6211957172                       # number of overall MSHR miss cycles
system.cpu3.dcache.overall_mshr_miss_latency::total   6211957172                       # number of overall MSHR miss cycles
system.cpu3.dcache.ReadReq_mshr_miss_rate::switch_cpus3.data     0.005638                       # mshr miss rate for ReadReq accesses
system.cpu3.dcache.ReadReq_mshr_miss_rate::total     0.005638                       # mshr miss rate for ReadReq accesses
system.cpu3.dcache.WriteReq_mshr_miss_rate::switch_cpus3.data     0.000001                       # mshr miss rate for WriteReq accesses
system.cpu3.dcache.WriteReq_mshr_miss_rate::total     0.000001                       # mshr miss rate for WriteReq accesses
system.cpu3.dcache.demand_mshr_miss_rate::switch_cpus3.data     0.003178                       # mshr miss rate for demand accesses
system.cpu3.dcache.demand_mshr_miss_rate::total     0.003178                       # mshr miss rate for demand accesses
system.cpu3.dcache.overall_mshr_miss_rate::switch_cpus3.data     0.003178                       # mshr miss rate for overall accesses
system.cpu3.dcache.overall_mshr_miss_rate::total     0.003178                       # mshr miss rate for overall accesses
system.cpu3.dcache.ReadReq_avg_mshr_miss_latency::switch_cpus3.data 121585.871163                       # average ReadReq mshr miss latency
system.cpu3.dcache.ReadReq_avg_mshr_miss_latency::total 121585.871163                       # average ReadReq mshr miss latency
system.cpu3.dcache.WriteReq_avg_mshr_miss_latency::switch_cpus3.data 192981.857143                       # average WriteReq mshr miss latency
system.cpu3.dcache.WriteReq_avg_mshr_miss_latency::total 192981.857143                       # average WriteReq mshr miss latency
system.cpu3.dcache.demand_avg_mshr_miss_latency::switch_cpus3.data 121595.653924                       # average overall mshr miss latency
system.cpu3.dcache.demand_avg_mshr_miss_latency::total 121595.653924                       # average overall mshr miss latency
system.cpu3.dcache.overall_avg_mshr_miss_latency::switch_cpus3.data 121595.653924                       # average overall mshr miss latency
system.cpu3.dcache.overall_avg_mshr_miss_latency::total 121595.653924                       # average overall mshr miss latency
system.cpu3.dcache.no_allocate_misses               0                       # Number of misses that were no-allocate

---------- End Simulation Statistics   ----------
