
---------- Begin Simulation Statistics ----------
sim_seconds                                  0.035415                       # Number of seconds simulated
sim_ticks                                 35414956818                       # Number of ticks simulated
final_tick                               564979336755                       # Number of ticks from beginning of simulation (restored from checkpoints and never reset)
sim_freq                                 1000000000000                       # Frequency of simulated ticks
host_inst_rate                                 286508                       # Simulator instruction rate (inst/s)
host_op_rate                                   361832                       # Simulator op (including micro ops) rate (op/s)
host_tick_rate                                2300082                       # Simulator tick rate (ticks/s)
host_mem_usage                               16925164                       # Number of bytes of host memory used
host_seconds                                 15397.26                       # Real time elapsed on the host
sim_insts                                  4411435118                       # Number of instructions simulated
sim_ops                                    5571228661                       # Number of ops (including micro ops) simulated
system.physmem.bytes_read::switch_cpus0.inst         1280                       # Number of bytes read from this memory
system.physmem.bytes_read::switch_cpus0.data      1318656                       # Number of bytes read from this memory
system.physmem.bytes_read::switch_cpus1.inst         1664                       # Number of bytes read from this memory
system.physmem.bytes_read::switch_cpus1.data      1651712                       # Number of bytes read from this memory
system.physmem.bytes_read::switch_cpus2.inst         1792                       # Number of bytes read from this memory
system.physmem.bytes_read::switch_cpus2.data       570880                       # Number of bytes read from this memory
system.physmem.bytes_read::switch_cpus3.inst         1664                       # Number of bytes read from this memory
system.physmem.bytes_read::switch_cpus3.data       855040                       # Number of bytes read from this memory
system.physmem.bytes_read::total              4402688                       # Number of bytes read from this memory
system.physmem.bytes_inst_read::switch_cpus0.inst         1280                       # Number of instructions bytes read from this memory
system.physmem.bytes_inst_read::switch_cpus1.inst         1664                       # Number of instructions bytes read from this memory
system.physmem.bytes_inst_read::switch_cpus2.inst         1792                       # Number of instructions bytes read from this memory
system.physmem.bytes_inst_read::switch_cpus3.inst         1664                       # Number of instructions bytes read from this memory
system.physmem.bytes_inst_read::total            6400                       # Number of instructions bytes read from this memory
system.physmem.bytes_written::writebacks      2215552                       # Number of bytes written to this memory
system.physmem.bytes_written::total           2215552                       # Number of bytes written to this memory
system.physmem.num_reads::switch_cpus0.inst           10                       # Number of read requests responded to by this memory
system.physmem.num_reads::switch_cpus0.data        10302                       # Number of read requests responded to by this memory
system.physmem.num_reads::switch_cpus1.inst           13                       # Number of read requests responded to by this memory
system.physmem.num_reads::switch_cpus1.data        12904                       # Number of read requests responded to by this memory
system.physmem.num_reads::switch_cpus2.inst           14                       # Number of read requests responded to by this memory
system.physmem.num_reads::switch_cpus2.data         4460                       # Number of read requests responded to by this memory
system.physmem.num_reads::switch_cpus3.inst           13                       # Number of read requests responded to by this memory
system.physmem.num_reads::switch_cpus3.data         6680                       # Number of read requests responded to by this memory
system.physmem.num_reads::total                 34396                       # Number of read requests responded to by this memory
system.physmem.num_writes::writebacks           17309                       # Number of write requests responded to by this memory
system.physmem.num_writes::functional               0                       # Number of write requests responded to by this memory
system.physmem.num_writes::interrupt                0                       # Number of write requests responded to by this memory
system.physmem.num_writes::switch_cpus0.dtb.walker            0                       # Number of write requests responded to by this memory
system.physmem.num_writes::switch_cpus0.itb.walker            0                       # Number of write requests responded to by this memory
system.physmem.num_writes::switch_cpus0.inst            0                       # Number of write requests responded to by this memory
system.physmem.num_writes::switch_cpus0.data            0                       # Number of write requests responded to by this memory
system.physmem.num_writes::switch_cpus1.dtb.walker            0                       # Number of write requests responded to by this memory
system.physmem.num_writes::switch_cpus1.itb.walker            0                       # Number of write requests responded to by this memory
system.physmem.num_writes::switch_cpus1.inst            0                       # Number of write requests responded to by this memory
system.physmem.num_writes::switch_cpus1.data            0                       # Number of write requests responded to by this memory
system.physmem.num_writes::switch_cpus2.dtb.walker            0                       # Number of write requests responded to by this memory
system.physmem.num_writes::switch_cpus2.itb.walker            0                       # Number of write requests responded to by this memory
system.physmem.num_writes::switch_cpus2.inst            0                       # Number of write requests responded to by this memory
system.physmem.num_writes::switch_cpus2.data            0                       # Number of write requests responded to by this memory
system.physmem.num_writes::switch_cpus3.dtb.walker            0                       # Number of write requests responded to by this memory
system.physmem.num_writes::switch_cpus3.itb.walker            0                       # Number of write requests responded to by this memory
system.physmem.num_writes::switch_cpus3.inst            0                       # Number of write requests responded to by this memory
system.physmem.num_writes::switch_cpus3.data            0                       # Number of write requests responded to by this memory
system.physmem.num_writes::cpu0.dtb.walker            0                       # Number of write requests responded to by this memory
system.physmem.num_writes::cpu0.itb.walker            0                       # Number of write requests responded to by this memory
system.physmem.num_writes::cpu0.inst                0                       # Number of write requests responded to by this memory
system.physmem.num_writes::cpu0.data                0                       # Number of write requests responded to by this memory
system.physmem.num_writes::cpu1.dtb.walker            0                       # Number of write requests responded to by this memory
system.physmem.num_writes::cpu1.itb.walker            0                       # Number of write requests responded to by this memory
system.physmem.num_writes::cpu1.inst                0                       # Number of write requests responded to by this memory
system.physmem.num_writes::cpu1.data                0                       # Number of write requests responded to by this memory
system.physmem.num_writes::cpu2.dtb.walker            0                       # Number of write requests responded to by this memory
system.physmem.num_writes::cpu2.itb.walker            0                       # Number of write requests responded to by this memory
system.physmem.num_writes::cpu2.inst                0                       # Number of write requests responded to by this memory
system.physmem.num_writes::cpu2.data                0                       # Number of write requests responded to by this memory
system.physmem.num_writes::cpu3.dtb.walker            0                       # Number of write requests responded to by this memory
system.physmem.num_writes::cpu3.itb.walker            0                       # Number of write requests responded to by this memory
system.physmem.num_writes::cpu3.inst                0                       # Number of write requests responded to by this memory
system.physmem.num_writes::cpu3.data                0                       # Number of write requests responded to by this memory
system.physmem.num_writes::total                17309                       # Number of write requests responded to by this memory
system.physmem.bw_read::switch_cpus0.inst        36143                       # Total read bandwidth from this memory (bytes/s)
system.physmem.bw_read::switch_cpus0.data     37234438                       # Total read bandwidth from this memory (bytes/s)
system.physmem.bw_read::switch_cpus1.inst        46986                       # Total read bandwidth from this memory (bytes/s)
system.physmem.bw_read::switch_cpus1.data     46638826                       # Total read bandwidth from this memory (bytes/s)
system.physmem.bw_read::switch_cpus2.inst        50600                       # Total read bandwidth from this memory (bytes/s)
system.physmem.bw_read::switch_cpus2.data     16119743                       # Total read bandwidth from this memory (bytes/s)
system.physmem.bw_read::switch_cpus3.inst        46986                       # Total read bandwidth from this memory (bytes/s)
system.physmem.bw_read::switch_cpus3.data     24143471                       # Total read bandwidth from this memory (bytes/s)
system.physmem.bw_read::total               124317192                       # Total read bandwidth from this memory (bytes/s)
system.physmem.bw_inst_read::switch_cpus0.inst        36143                       # Instruction read bandwidth from this memory (bytes/s)
system.physmem.bw_inst_read::switch_cpus1.inst        46986                       # Instruction read bandwidth from this memory (bytes/s)
system.physmem.bw_inst_read::switch_cpus2.inst        50600                       # Instruction read bandwidth from this memory (bytes/s)
system.physmem.bw_inst_read::switch_cpus3.inst        46986                       # Instruction read bandwidth from this memory (bytes/s)
system.physmem.bw_inst_read::total             180715                       # Instruction read bandwidth from this memory (bytes/s)
system.physmem.bw_write::writebacks          62559783                       # Write bandwidth from this memory (bytes/s)
system.physmem.bw_write::total               62559783                       # Write bandwidth from this memory (bytes/s)
system.physmem.bw_total::writebacks          62559783                       # Total bandwidth to/from this memory (bytes/s)
system.physmem.bw_total::switch_cpus0.inst        36143                       # Total bandwidth to/from this memory (bytes/s)
system.physmem.bw_total::switch_cpus0.data     37234438                       # Total bandwidth to/from this memory (bytes/s)
system.physmem.bw_total::switch_cpus1.inst        46986                       # Total bandwidth to/from this memory (bytes/s)
system.physmem.bw_total::switch_cpus1.data     46638826                       # Total bandwidth to/from this memory (bytes/s)
system.physmem.bw_total::switch_cpus2.inst        50600                       # Total bandwidth to/from this memory (bytes/s)
system.physmem.bw_total::switch_cpus2.data     16119743                       # Total bandwidth to/from this memory (bytes/s)
system.physmem.bw_total::switch_cpus3.inst        46986                       # Total bandwidth to/from this memory (bytes/s)
system.physmem.bw_total::switch_cpus3.data     24143471                       # Total bandwidth to/from this memory (bytes/s)
system.physmem.bw_total::total              186876975                       # Total bandwidth to/from this memory (bytes/s)
system.switch_cpus0.dtb.inst_hits                   0                       # ITB inst hits
system.switch_cpus0.dtb.inst_misses                 0                       # ITB inst misses
system.switch_cpus0.dtb.read_hits                   0                       # DTB read hits
system.switch_cpus0.dtb.read_misses                 0                       # DTB read misses
system.switch_cpus0.dtb.write_hits                  0                       # DTB write hits
system.switch_cpus0.dtb.write_misses                0                       # DTB write misses
system.switch_cpus0.dtb.flush_tlb                   0                       # Number of times complete TLB was flushed
system.switch_cpus0.dtb.flush_tlb_mva               0                       # Number of times TLB was flushed by MVA
system.switch_cpus0.dtb.flush_tlb_mva_asid            0                       # Number of times TLB was flushed by MVA & ASID
system.switch_cpus0.dtb.flush_tlb_asid              0                       # Number of times TLB was flushed by ASID
system.switch_cpus0.dtb.flush_entries               0                       # Number of entries that have been flushed from TLB
system.switch_cpus0.dtb.align_faults                0                       # Number of TLB faults due to alignment restrictions
system.switch_cpus0.dtb.prefetch_faults             0                       # Number of TLB faults due to prefetch
system.switch_cpus0.dtb.domain_faults               0                       # Number of TLB faults due to domain restrictions
system.switch_cpus0.dtb.perms_faults                0                       # Number of TLB faults due to permissions restrictions
system.switch_cpus0.dtb.read_accesses               0                       # DTB read accesses
system.switch_cpus0.dtb.write_accesses              0                       # DTB write accesses
system.switch_cpus0.dtb.inst_accesses               0                       # ITB inst accesses
system.switch_cpus0.dtb.hits                        0                       # DTB hits
system.switch_cpus0.dtb.misses                      0                       # DTB misses
system.switch_cpus0.dtb.accesses                    0                       # DTB accesses
system.switch_cpus0.itb.inst_hits                   0                       # ITB inst hits
system.switch_cpus0.itb.inst_misses                 0                       # ITB inst misses
system.switch_cpus0.itb.read_hits                   0                       # DTB read hits
system.switch_cpus0.itb.read_misses                 0                       # DTB read misses
system.switch_cpus0.itb.write_hits                  0                       # DTB write hits
system.switch_cpus0.itb.write_misses                0                       # DTB write misses
system.switch_cpus0.itb.flush_tlb                   0                       # Number of times complete TLB was flushed
system.switch_cpus0.itb.flush_tlb_mva               0                       # Number of times TLB was flushed by MVA
system.switch_cpus0.itb.flush_tlb_mva_asid            0                       # Number of times TLB was flushed by MVA & ASID
system.switch_cpus0.itb.flush_tlb_asid              0                       # Number of times TLB was flushed by ASID
system.switch_cpus0.itb.flush_entries               0                       # Number of entries that have been flushed from TLB
system.switch_cpus0.itb.align_faults                0                       # Number of TLB faults due to alignment restrictions
system.switch_cpus0.itb.prefetch_faults             0                       # Number of TLB faults due to prefetch
system.switch_cpus0.itb.domain_faults               0                       # Number of TLB faults due to domain restrictions
system.switch_cpus0.itb.perms_faults                0                       # Number of TLB faults due to permissions restrictions
system.switch_cpus0.itb.read_accesses               0                       # DTB read accesses
system.switch_cpus0.itb.write_accesses              0                       # DTB write accesses
system.switch_cpus0.itb.inst_accesses               0                       # ITB inst accesses
system.switch_cpus0.itb.hits                        0                       # DTB hits
system.switch_cpus0.itb.misses                      0                       # DTB misses
system.switch_cpus0.itb.accesses                    0                       # DTB accesses
system.cpu0.workload.num_syscalls                   0                       # Number of system calls
system.switch_cpus0.numCycles                84927955                       # number of cpu cycles simulated
system.switch_cpus0.numWorkItemsStarted             0                       # number of work items this cpu started
system.switch_cpus0.numWorkItemsCompleted            0                       # number of work items this cpu completed
system.switch_cpus0.BPredUnit.lookups        30995111                       # Number of BP lookups
system.switch_cpus0.BPredUnit.condPredicted     25424850                       # Number of conditional branches predicted
system.switch_cpus0.BPredUnit.condIncorrect      2013974                       # Number of conditional branches incorrect
system.switch_cpus0.BPredUnit.BTBLookups     13074319                       # Number of BTB lookups
system.switch_cpus0.BPredUnit.BTBHits        12095534                       # Number of BTB hits
system.switch_cpus0.BPredUnit.BTBCorrect            0                       # Number of correct BTB predictions (this stat may not work properly.
system.switch_cpus0.BPredUnit.usedRAS         3161824                       # Number of times the RAS was used to get a target.
system.switch_cpus0.BPredUnit.RASInCorrect        87183                       # Number of incorrect RAS predictions.
system.switch_cpus0.fetch.icacheStallCycles     32002125                       # Number of cycles fetch is stalled on an Icache miss
system.switch_cpus0.fetch.Insts             170056546                       # Number of instructions fetch has processed
system.switch_cpus0.fetch.Branches           30995111                       # Number of branches that fetch encountered
system.switch_cpus0.fetch.predictedBranches     15257358                       # Number of branches that fetch has predicted taken
system.switch_cpus0.fetch.Cycles             36566598                       # Number of cycles fetch has run and was not squashing or blocked
system.switch_cpus0.fetch.SquashCycles       10787765                       # Number of cycles fetch has spent squashing
system.switch_cpus0.fetch.BlockedCycles       6516040                       # Number of cycles fetch has spent blocked
system.switch_cpus0.fetch.PendingTrapStallCycles            1                       # Number of stall cycles due to pending traps
system.switch_cpus0.fetch.CacheLines         15659297                       # Number of cache lines fetched
system.switch_cpus0.fetch.IcacheSquashes       808217                       # Number of outstanding Icache misses that were squashed
system.switch_cpus0.fetch.rateDist::samples     83826474                       # Number of instructions fetched each cycle (Total)
system.switch_cpus0.fetch.rateDist::mean     2.493487                       # Number of instructions fetched each cycle (Total)
system.switch_cpus0.fetch.rateDist::stdev     3.334783                       # Number of instructions fetched each cycle (Total)
system.switch_cpus0.fetch.rateDist::underflows            0      0.00%      0.00% # Number of instructions fetched each cycle (Total)
system.switch_cpus0.fetch.rateDist::0        47259876     56.38%     56.38% # Number of instructions fetched each cycle (Total)
system.switch_cpus0.fetch.rateDist::1         3650382      4.35%     60.73% # Number of instructions fetched each cycle (Total)
system.switch_cpus0.fetch.rateDist::2         3197927      3.81%     64.55% # Number of instructions fetched each cycle (Total)
system.switch_cpus0.fetch.rateDist::3         3435901      4.10%     68.65% # Number of instructions fetched each cycle (Total)
system.switch_cpus0.fetch.rateDist::4         3029267      3.61%     72.26% # Number of instructions fetched each cycle (Total)
system.switch_cpus0.fetch.rateDist::5         1576153      1.88%     74.14% # Number of instructions fetched each cycle (Total)
system.switch_cpus0.fetch.rateDist::6         1025257      1.22%     75.36% # Number of instructions fetched each cycle (Total)
system.switch_cpus0.fetch.rateDist::7         2696742      3.22%     78.58% # Number of instructions fetched each cycle (Total)
system.switch_cpus0.fetch.rateDist::8        17954969     21.42%    100.00% # Number of instructions fetched each cycle (Total)
system.switch_cpus0.fetch.rateDist::overflows            0      0.00%    100.00% # Number of instructions fetched each cycle (Total)
system.switch_cpus0.fetch.rateDist::min_value            0                       # Number of instructions fetched each cycle (Total)
system.switch_cpus0.fetch.rateDist::max_value            8                       # Number of instructions fetched each cycle (Total)
system.switch_cpus0.fetch.rateDist::total     83826474                       # Number of instructions fetched each cycle (Total)
system.switch_cpus0.fetch.branchRate         0.364958                       # Number of branch fetches per cycle
system.switch_cpus0.fetch.rate               2.002362                       # Number of inst fetches per cycle
system.switch_cpus0.decode.IdleCycles        33669418                       # Number of cycles decode is idle
system.switch_cpus0.decode.BlockedCycles      6095593                       # Number of cycles decode is blocked
system.switch_cpus0.decode.RunCycles         34779012                       # Number of cycles decode is running
system.switch_cpus0.decode.UnblockCycles       547189                       # Number of cycles decode is unblocking
system.switch_cpus0.decode.SquashCycles       8735253                       # Number of cycles decode is squashing
system.switch_cpus0.decode.BranchResolved      5077254                       # Number of times decode resolved a branch
system.switch_cpus0.decode.BranchMispred         6634                       # Number of times decode detected a branch misprediction
system.switch_cpus0.decode.DecodedInsts     201723612                       # Number of instructions handled by decode
system.switch_cpus0.decode.SquashedInsts        51099                       # Number of squashed instructions handled by decode
system.switch_cpus0.rename.SquashCycles       8735253                       # Number of cycles rename is squashing
system.switch_cpus0.rename.IdleCycles        35333034                       # Number of cycles rename is idle
system.switch_cpus0.rename.BlockCycles        2610408                       # Number of cycles rename is blocking
system.switch_cpus0.rename.serializeStallCycles       785581                       # count of cycles rename stalled for serializing inst
system.switch_cpus0.rename.RunCycles         33634079                       # Number of cycles rename is running
system.switch_cpus0.rename.UnblockCycles      2728111                       # Number of cycles rename is unblocking
system.switch_cpus0.rename.RenamedInsts     194903308                       # Number of instructions processed by rename
system.switch_cpus0.rename.ROBFullEvents        10454                       # Number of times rename has blocked due to ROB full
system.switch_cpus0.rename.IQFullEvents       1711460                       # Number of times rename has blocked due to IQ full
system.switch_cpus0.rename.LSQFullEvents       746758                       # Number of times rename has blocked due to LSQ full
system.switch_cpus0.rename.FullRegisterEvents           22                       # Number of times there has been no free registers
system.switch_cpus0.rename.RenamedOperands    270644491                       # Number of destination operands rename has renamed
system.switch_cpus0.rename.RenameLookups    908799787                       # Number of register rename lookups that rename has made
system.switch_cpus0.rename.int_rename_lookups    908799787                       # Number of integer rename lookups
system.switch_cpus0.rename.CommittedMaps    168259218                       # Number of HB maps that are committed
system.switch_cpus0.rename.UndoneMaps       102385227                       # Number of HB maps that are undone due to squashing
system.switch_cpus0.rename.serializingInsts        33911                       # count of serializing insts renamed
system.switch_cpus0.rename.tempSerializingInsts        17889                       # count of temporary serializing insts renamed
system.switch_cpus0.rename.skidInsts          7233468                       # count of insts added to the skid buffer
system.switch_cpus0.memDep0.insertedLoads     19240544                       # Number of loads inserted to the mem dependence unit.
system.switch_cpus0.memDep0.insertedStores     10021459                       # Number of stores inserted to the mem dependence unit.
system.switch_cpus0.memDep0.conflictingLoads       243848                       # Number of conflicting loads.
system.switch_cpus0.memDep0.conflictingStores      3252332                       # Number of conflicting stores.
system.switch_cpus0.iq.iqInstsAdded         183820981                       # Number of instructions added to the IQ (excludes non-spec)
system.switch_cpus0.iq.iqNonSpecInstsAdded        33896                       # Number of non-speculative instructions added to the IQ
system.switch_cpus0.iq.iqInstsIssued        147723373                       # Number of instructions issued
system.switch_cpus0.iq.iqSquashedInstsIssued       279279                       # Number of squashed instructions issued
system.switch_cpus0.iq.iqSquashedInstsExamined     60945501                       # Number of squashed instructions iterated over during squash; mainly for profiling
system.switch_cpus0.iq.iqSquashedOperandsExamined    186226205                       # Number of squashed operands that are examined and possibly removed from graph
system.switch_cpus0.iq.iqSquashedNonSpecRemoved         1852                       # Number of squashed non-spec instructions that were removed
system.switch_cpus0.iq.issued_per_cycle::samples     83826474                       # Number of insts issued each cycle
system.switch_cpus0.iq.issued_per_cycle::mean     1.762252                       # Number of insts issued each cycle
system.switch_cpus0.iq.issued_per_cycle::stdev     1.909496                       # Number of insts issued each cycle
system.switch_cpus0.iq.issued_per_cycle::underflows            0      0.00%      0.00% # Number of insts issued each cycle
system.switch_cpus0.iq.issued_per_cycle::0     29644142     35.36%     35.36% # Number of insts issued each cycle
system.switch_cpus0.iq.issued_per_cycle::1     17823584     21.26%     56.63% # Number of insts issued each cycle
system.switch_cpus0.iq.issued_per_cycle::2     11980550     14.29%     70.92% # Number of insts issued each cycle
system.switch_cpus0.iq.issued_per_cycle::3      7623348      9.09%     80.01% # Number of insts issued each cycle
system.switch_cpus0.iq.issued_per_cycle::4      7541563      9.00%     89.01% # Number of insts issued each cycle
system.switch_cpus0.iq.issued_per_cycle::5      4433042      5.29%     94.30% # Number of insts issued each cycle
system.switch_cpus0.iq.issued_per_cycle::6      3380338      4.03%     98.33% # Number of insts issued each cycle
system.switch_cpus0.iq.issued_per_cycle::7       744101      0.89%     99.22% # Number of insts issued each cycle
system.switch_cpus0.iq.issued_per_cycle::8       655806      0.78%    100.00% # Number of insts issued each cycle
system.switch_cpus0.iq.issued_per_cycle::overflows            0      0.00%    100.00% # Number of insts issued each cycle
system.switch_cpus0.iq.issued_per_cycle::min_value            0                       # Number of insts issued each cycle
system.switch_cpus0.iq.issued_per_cycle::max_value            8                       # Number of insts issued each cycle
system.switch_cpus0.iq.issued_per_cycle::total     83826474                       # Number of insts issued each cycle
system.switch_cpus0.iq.fu_full::No_OpClass            0      0.00%      0.00% # attempts to use FU when none available
system.switch_cpus0.iq.fu_full::IntAlu        1084889     70.22%     70.22% # attempts to use FU when none available
system.switch_cpus0.iq.fu_full::IntMult            39      0.00%     70.22% # attempts to use FU when none available
system.switch_cpus0.iq.fu_full::IntDiv              0      0.00%     70.22% # attempts to use FU when none available
system.switch_cpus0.iq.fu_full::FloatAdd            0      0.00%     70.22% # attempts to use FU when none available
system.switch_cpus0.iq.fu_full::FloatCmp            0      0.00%     70.22% # attempts to use FU when none available
system.switch_cpus0.iq.fu_full::FloatCvt            0      0.00%     70.22% # attempts to use FU when none available
system.switch_cpus0.iq.fu_full::FloatMult            0      0.00%     70.22% # attempts to use FU when none available
system.switch_cpus0.iq.fu_full::FloatDiv            0      0.00%     70.22% # attempts to use FU when none available
system.switch_cpus0.iq.fu_full::FloatSqrt            0      0.00%     70.22% # attempts to use FU when none available
system.switch_cpus0.iq.fu_full::SimdAdd             0      0.00%     70.22% # attempts to use FU when none available
system.switch_cpus0.iq.fu_full::SimdAddAcc            0      0.00%     70.22% # attempts to use FU when none available
system.switch_cpus0.iq.fu_full::SimdAlu             0      0.00%     70.22% # attempts to use FU when none available
system.switch_cpus0.iq.fu_full::SimdCmp             0      0.00%     70.22% # attempts to use FU when none available
system.switch_cpus0.iq.fu_full::SimdCvt             0      0.00%     70.22% # attempts to use FU when none available
system.switch_cpus0.iq.fu_full::SimdMisc            0      0.00%     70.22% # attempts to use FU when none available
system.switch_cpus0.iq.fu_full::SimdMult            0      0.00%     70.22% # attempts to use FU when none available
system.switch_cpus0.iq.fu_full::SimdMultAcc            0      0.00%     70.22% # attempts to use FU when none available
system.switch_cpus0.iq.fu_full::SimdShift            0      0.00%     70.22% # attempts to use FU when none available
system.switch_cpus0.iq.fu_full::SimdShiftAcc            0      0.00%     70.22% # attempts to use FU when none available
system.switch_cpus0.iq.fu_full::SimdSqrt            0      0.00%     70.22% # attempts to use FU when none available
system.switch_cpus0.iq.fu_full::SimdFloatAdd            0      0.00%     70.22% # attempts to use FU when none available
system.switch_cpus0.iq.fu_full::SimdFloatAlu            0      0.00%     70.22% # attempts to use FU when none available
system.switch_cpus0.iq.fu_full::SimdFloatCmp            0      0.00%     70.22% # attempts to use FU when none available
system.switch_cpus0.iq.fu_full::SimdFloatCvt            0      0.00%     70.22% # attempts to use FU when none available
system.switch_cpus0.iq.fu_full::SimdFloatDiv            0      0.00%     70.22% # attempts to use FU when none available
system.switch_cpus0.iq.fu_full::SimdFloatMisc            0      0.00%     70.22% # attempts to use FU when none available
system.switch_cpus0.iq.fu_full::SimdFloatMult            0      0.00%     70.22% # attempts to use FU when none available
system.switch_cpus0.iq.fu_full::SimdFloatMultAcc            0      0.00%     70.22% # attempts to use FU when none available
system.switch_cpus0.iq.fu_full::SimdFloatSqrt            0      0.00%     70.22% # attempts to use FU when none available
system.switch_cpus0.iq.fu_full::MemRead        202069     13.08%     83.30% # attempts to use FU when none available
system.switch_cpus0.iq.fu_full::MemWrite       257955     16.70%    100.00% # attempts to use FU when none available
system.switch_cpus0.iq.fu_full::IprAccess            0      0.00%    100.00% # attempts to use FU when none available
system.switch_cpus0.iq.fu_full::InstPrefetch            0      0.00%    100.00% # attempts to use FU when none available
system.switch_cpus0.iq.FU_type_0::No_OpClass            0      0.00%      0.00% # Type of FU issued
system.switch_cpus0.iq.FU_type_0::IntAlu    121534848     82.27%     82.27% # Type of FU issued
system.switch_cpus0.iq.FU_type_0::IntMult      2012538      1.36%     83.63% # Type of FU issued
system.switch_cpus0.iq.FU_type_0::IntDiv            0      0.00%     83.63% # Type of FU issued
system.switch_cpus0.iq.FU_type_0::FloatAdd            0      0.00%     83.63% # Type of FU issued
system.switch_cpus0.iq.FU_type_0::FloatCmp            0      0.00%     83.63% # Type of FU issued
system.switch_cpus0.iq.FU_type_0::FloatCvt            0      0.00%     83.63% # Type of FU issued
system.switch_cpus0.iq.FU_type_0::FloatMult            0      0.00%     83.63% # Type of FU issued
system.switch_cpus0.iq.FU_type_0::FloatDiv            0      0.00%     83.63% # Type of FU issued
system.switch_cpus0.iq.FU_type_0::FloatSqrt            0      0.00%     83.63% # Type of FU issued
system.switch_cpus0.iq.FU_type_0::SimdAdd            0      0.00%     83.63% # Type of FU issued
system.switch_cpus0.iq.FU_type_0::SimdAddAcc            0      0.00%     83.63% # Type of FU issued
system.switch_cpus0.iq.FU_type_0::SimdAlu            0      0.00%     83.63% # Type of FU issued
system.switch_cpus0.iq.FU_type_0::SimdCmp            0      0.00%     83.63% # Type of FU issued
system.switch_cpus0.iq.FU_type_0::SimdCvt            0      0.00%     83.63% # Type of FU issued
system.switch_cpus0.iq.FU_type_0::SimdMisc            0      0.00%     83.63% # Type of FU issued
system.switch_cpus0.iq.FU_type_0::SimdMult            0      0.00%     83.63% # Type of FU issued
system.switch_cpus0.iq.FU_type_0::SimdMultAcc            0      0.00%     83.63% # Type of FU issued
system.switch_cpus0.iq.FU_type_0::SimdShift            0      0.00%     83.63% # Type of FU issued
system.switch_cpus0.iq.FU_type_0::SimdShiftAcc            0      0.00%     83.63% # Type of FU issued
system.switch_cpus0.iq.FU_type_0::SimdSqrt            0      0.00%     83.63% # Type of FU issued
system.switch_cpus0.iq.FU_type_0::SimdFloatAdd            0      0.00%     83.63% # Type of FU issued
system.switch_cpus0.iq.FU_type_0::SimdFloatAlu            0      0.00%     83.63% # Type of FU issued
system.switch_cpus0.iq.FU_type_0::SimdFloatCmp            0      0.00%     83.63% # Type of FU issued
system.switch_cpus0.iq.FU_type_0::SimdFloatCvt            0      0.00%     83.63% # Type of FU issued
system.switch_cpus0.iq.FU_type_0::SimdFloatDiv            0      0.00%     83.63% # Type of FU issued
system.switch_cpus0.iq.FU_type_0::SimdFloatMisc        16022      0.01%     83.65% # Type of FU issued
system.switch_cpus0.iq.FU_type_0::SimdFloatMult            0      0.00%     83.65% # Type of FU issued
system.switch_cpus0.iq.FU_type_0::SimdFloatMultAcc            0      0.00%     83.65% # Type of FU issued
system.switch_cpus0.iq.FU_type_0::SimdFloatSqrt            0      0.00%     83.65% # Type of FU issued
system.switch_cpus0.iq.FU_type_0::MemRead     15730273     10.65%     94.29% # Type of FU issued
system.switch_cpus0.iq.FU_type_0::MemWrite      8429692      5.71%    100.00% # Type of FU issued
system.switch_cpus0.iq.FU_type_0::IprAccess            0      0.00%    100.00% # Type of FU issued
system.switch_cpus0.iq.FU_type_0::InstPrefetch            0      0.00%    100.00% # Type of FU issued
system.switch_cpus0.iq.FU_type_0::total     147723373                       # Type of FU issued
system.switch_cpus0.iq.rate                  1.739396                       # Inst issue rate
system.switch_cpus0.iq.fu_busy_cnt            1544952                       # FU busy when requested
system.switch_cpus0.iq.fu_busy_rate          0.010458                       # FU busy rate (busy events/executed inst)
system.switch_cpus0.iq.int_inst_queue_reads    381097447                       # Number of integer instruction queue reads
system.switch_cpus0.iq.int_inst_queue_writes    244801459                       # Number of integer instruction queue writes
system.switch_cpus0.iq.int_inst_queue_wakeup_accesses    143573944                       # Number of integer instruction queue wakeup accesses
system.switch_cpus0.iq.fp_inst_queue_reads            0                       # Number of floating instruction queue reads
system.switch_cpus0.iq.fp_inst_queue_writes            0                       # Number of floating instruction queue writes
system.switch_cpus0.iq.fp_inst_queue_wakeup_accesses            0                       # Number of floating instruction queue wakeup accesses
system.switch_cpus0.iq.int_alu_accesses     149268325                       # Number of integer alu accesses
system.switch_cpus0.iq.fp_alu_accesses              0                       # Number of floating point alu accesses
system.switch_cpus0.iew.lsq.thread0.forwLoads       262961                       # Number of loads that had data forwarded from stores
system.switch_cpus0.iew.lsq.thread0.invAddrLoads            0                       # Number of loads ignored due to an invalid address
system.switch_cpus0.iew.lsq.thread0.squashedLoads      7028415                       # Number of loads squashed
system.switch_cpus0.iew.lsq.thread0.ignoredResponses          443                       # Number of memory responses ignored because the instruction is squashed
system.switch_cpus0.iew.lsq.thread0.memOrderViolation         1102                       # Number of memory ordering violations
system.switch_cpus0.iew.lsq.thread0.squashedStores      2279786                       # Number of stores squashed
system.switch_cpus0.iew.lsq.thread0.invAddrSwpfs            0                       # Number of software prefetches ignored due to an invalid address
system.switch_cpus0.iew.lsq.thread0.blockedLoads            0                       # Number of blocked loads due to partial load-store forwarding
system.switch_cpus0.iew.lsq.thread0.rescheduledLoads          571                       # Number of loads that were rescheduled
system.switch_cpus0.iew.lsq.thread0.cacheBlocked            0                       # Number of times an access to memory failed due to the cache being blocked
system.switch_cpus0.iew.iewIdleCycles               0                       # Number of cycles IEW is idle
system.switch_cpus0.iew.iewSquashCycles       8735253                       # Number of cycles IEW is squashing
system.switch_cpus0.iew.iewBlockCycles        1875719                       # Number of cycles IEW is blocking
system.switch_cpus0.iew.iewUnblockCycles       165377                       # Number of cycles IEW is unblocking
system.switch_cpus0.iew.iewDispatchedInsts    183854877                       # Number of instructions dispatched to IQ
system.switch_cpus0.iew.iewDispSquashedInsts       311623                       # Number of squashed instructions skipped by dispatch
system.switch_cpus0.iew.iewDispLoadInsts     19240544                       # Number of dispatched load instructions
system.switch_cpus0.iew.iewDispStoreInsts     10021459                       # Number of dispatched store instructions
system.switch_cpus0.iew.iewDispNonSpecInsts        17874                       # Number of dispatched non-speculative instructions
system.switch_cpus0.iew.iewIQFullEvents        120593                       # Number of times the IQ has become full, causing a stall
system.switch_cpus0.iew.iewLSQFullEvents         8148                       # Number of times the LSQ has become full, causing a stall
system.switch_cpus0.iew.memOrderViolationEvents         1102                       # Number of memory order violations
system.switch_cpus0.iew.predictedTakenIncorrect      1229720                       # Number of branches that were predicted taken incorrectly
system.switch_cpus0.iew.predictedNotTakenIncorrect      1129262                       # Number of branches that were predicted not taken incorrectly
system.switch_cpus0.iew.branchMispredicts      2358982                       # Number of branch mispredicts detected at execute
system.switch_cpus0.iew.iewExecutedInsts    145142074                       # Number of executed instructions
system.switch_cpus0.iew.iewExecLoadInsts     14789057                       # Number of load instructions executed
system.switch_cpus0.iew.iewExecSquashedInsts      2581295                       # Number of squashed instructions skipped in execute
system.switch_cpus0.iew.exec_swp                    0                       # number of swp insts executed
system.switch_cpus0.iew.exec_nop                    0                       # number of nop insts executed
system.switch_cpus0.iew.exec_refs            22980685                       # number of memory reference insts executed
system.switch_cpus0.iew.exec_branches        20580502                       # Number of branches executed
system.switch_cpus0.iew.exec_stores           8191628                       # Number of stores executed
system.switch_cpus0.iew.exec_rate            1.709002                       # Inst execution rate
system.switch_cpus0.iew.wb_sent             143719916                       # cumulative count of insts sent to commit
system.switch_cpus0.iew.wb_count            143573944                       # cumulative count of insts written-back
system.switch_cpus0.iew.wb_producers         93665543                       # num instructions producing a value
system.switch_cpus0.iew.wb_consumers        261624259                       # num instructions consuming a value
system.switch_cpus0.iew.wb_penalized                0                       # number of instrctions required to write to 'other' IQ
system.switch_cpus0.iew.wb_rate              1.690538                       # insts written-back per cycle
system.switch_cpus0.iew.wb_fanout            0.358016                       # average fanout of values written-back
system.switch_cpus0.iew.wb_penalized_rate            0                       # fraction of instructions written-back that wrote to 'other' IQ
system.switch_cpus0.commit.commitCommittedInsts    100000000                       # The number of committed instructions
system.switch_cpus0.commit.commitCommittedOps    122421920                       # The number of committed instructions
system.switch_cpus0.commit.commitSquashedInsts     61436195                       # The number of squashed insts skipped by commit
system.switch_cpus0.commit.commitNonSpecStalls        32044                       # The number of times commit has been forced to stall to communicate backwards
system.switch_cpus0.commit.branchMispredicts      2038834                       # The number of times a branch was mispredicted
system.switch_cpus0.commit.committed_per_cycle::samples     75091221                       # Number of insts commited each cycle
system.switch_cpus0.commit.committed_per_cycle::mean     1.630309                       # Number of insts commited each cycle
system.switch_cpus0.commit.committed_per_cycle::stdev     2.172994                       # Number of insts commited each cycle
system.switch_cpus0.commit.committed_per_cycle::underflows            0      0.00%      0.00% # Number of insts commited each cycle
system.switch_cpus0.commit.committed_per_cycle::0     29786376     39.67%     39.67% # Number of insts commited each cycle
system.switch_cpus0.commit.committed_per_cycle::1     20447673     27.23%     66.90% # Number of insts commited each cycle
system.switch_cpus0.commit.committed_per_cycle::2      8367436     11.14%     78.04% # Number of insts commited each cycle
system.switch_cpus0.commit.committed_per_cycle::3      4296839      5.72%     83.76% # Number of insts commited each cycle
system.switch_cpus0.commit.committed_per_cycle::4      3688472      4.91%     88.67% # Number of insts commited each cycle
system.switch_cpus0.commit.committed_per_cycle::5      1815654      2.42%     91.09% # Number of insts commited each cycle
system.switch_cpus0.commit.committed_per_cycle::6      1991935      2.65%     93.75% # Number of insts commited each cycle
system.switch_cpus0.commit.committed_per_cycle::7      1009598      1.34%     95.09% # Number of insts commited each cycle
system.switch_cpus0.commit.committed_per_cycle::8      3687238      4.91%    100.00% # Number of insts commited each cycle
system.switch_cpus0.commit.committed_per_cycle::overflows            0      0.00%    100.00% # Number of insts commited each cycle
system.switch_cpus0.commit.committed_per_cycle::min_value            0                       # Number of insts commited each cycle
system.switch_cpus0.commit.committed_per_cycle::max_value            8                       # Number of insts commited each cycle
system.switch_cpus0.commit.committed_per_cycle::total     75091221                       # Number of insts commited each cycle
system.switch_cpus0.commit.committedInsts    100000000                       # Number of instructions committed
system.switch_cpus0.commit.committedOps     122421920                       # Number of ops (including micro ops) committed
system.switch_cpus0.commit.swp_count                0                       # Number of s/w prefetches committed
system.switch_cpus0.commit.refs              19953799                       # Number of memory references committed
system.switch_cpus0.commit.loads             12212129                       # Number of loads committed
system.switch_cpus0.commit.membars              16022                       # Number of memory barriers committed
system.switch_cpus0.commit.branches          17573934                       # Number of branches committed
system.switch_cpus0.commit.fp_insts                 0                       # Number of committed floating point instructions.
system.switch_cpus0.commit.int_insts        110146126                       # Number of committed integer instructions.
system.switch_cpus0.commit.function_calls      2413416                       # Number of function calls committed.
system.switch_cpus0.commit.bw_lim_events      3687238                       # number cycles where commit BW limit reached
system.switch_cpus0.commit.bw_limited               0                       # number of insts not committed due to BW limits
system.switch_cpus0.rob.rob_reads           255262098                       # The number of ROB reads
system.switch_cpus0.rob.rob_writes          376459803                       # The number of ROB writes
system.switch_cpus0.timesIdled                  40805                       # Number of times that the entire CPU went into an idle state and unscheduled itself
system.switch_cpus0.idleCycles                1101481                       # Total number of cycles that the CPU has spent unscheduled due to idling
system.switch_cpus0.committedInsts          100000000                       # Number of Instructions Simulated
system.switch_cpus0.committedOps            122421920                       # Number of Ops (including micro ops) Simulated
system.switch_cpus0.committedInsts_total    100000000                       # Number of Instructions Simulated
system.switch_cpus0.cpi                      0.849280                       # CPI: Cycles Per Instruction
system.switch_cpus0.cpi_total                0.849280                       # CPI: Total CPI of All Threads
system.switch_cpus0.ipc                      1.177469                       # IPC: Instructions Per Cycle
system.switch_cpus0.ipc_total                1.177469                       # IPC: Total IPC of All Threads
system.switch_cpus0.int_regfile_reads       655295036                       # number of integer regfile reads
system.switch_cpus0.int_regfile_writes      196928100                       # number of integer regfile writes
system.switch_cpus0.misc_regfile_reads      189167989                       # number of misc regfile reads
system.switch_cpus0.misc_regfile_writes         32044                       # number of misc regfile writes
system.switch_cpus1.dtb.inst_hits                   0                       # ITB inst hits
system.switch_cpus1.dtb.inst_misses                 0                       # ITB inst misses
system.switch_cpus1.dtb.read_hits                   0                       # DTB read hits
system.switch_cpus1.dtb.read_misses                 0                       # DTB read misses
system.switch_cpus1.dtb.write_hits                  0                       # DTB write hits
system.switch_cpus1.dtb.write_misses                0                       # DTB write misses
system.switch_cpus1.dtb.flush_tlb                   0                       # Number of times complete TLB was flushed
system.switch_cpus1.dtb.flush_tlb_mva               0                       # Number of times TLB was flushed by MVA
system.switch_cpus1.dtb.flush_tlb_mva_asid            0                       # Number of times TLB was flushed by MVA & ASID
system.switch_cpus1.dtb.flush_tlb_asid              0                       # Number of times TLB was flushed by ASID
system.switch_cpus1.dtb.flush_entries               0                       # Number of entries that have been flushed from TLB
system.switch_cpus1.dtb.align_faults                0                       # Number of TLB faults due to alignment restrictions
system.switch_cpus1.dtb.prefetch_faults             0                       # Number of TLB faults due to prefetch
system.switch_cpus1.dtb.domain_faults               0                       # Number of TLB faults due to domain restrictions
system.switch_cpus1.dtb.perms_faults                0                       # Number of TLB faults due to permissions restrictions
system.switch_cpus1.dtb.read_accesses               0                       # DTB read accesses
system.switch_cpus1.dtb.write_accesses              0                       # DTB write accesses
system.switch_cpus1.dtb.inst_accesses               0                       # ITB inst accesses
system.switch_cpus1.dtb.hits                        0                       # DTB hits
system.switch_cpus1.dtb.misses                      0                       # DTB misses
system.switch_cpus1.dtb.accesses                    0                       # DTB accesses
system.switch_cpus1.itb.inst_hits                   0                       # ITB inst hits
system.switch_cpus1.itb.inst_misses                 0                       # ITB inst misses
system.switch_cpus1.itb.read_hits                   0                       # DTB read hits
system.switch_cpus1.itb.read_misses                 0                       # DTB read misses
system.switch_cpus1.itb.write_hits                  0                       # DTB write hits
system.switch_cpus1.itb.write_misses                0                       # DTB write misses
system.switch_cpus1.itb.flush_tlb                   0                       # Number of times complete TLB was flushed
system.switch_cpus1.itb.flush_tlb_mva               0                       # Number of times TLB was flushed by MVA
system.switch_cpus1.itb.flush_tlb_mva_asid            0                       # Number of times TLB was flushed by MVA & ASID
system.switch_cpus1.itb.flush_tlb_asid              0                       # Number of times TLB was flushed by ASID
system.switch_cpus1.itb.flush_entries               0                       # Number of entries that have been flushed from TLB
system.switch_cpus1.itb.align_faults                0                       # Number of TLB faults due to alignment restrictions
system.switch_cpus1.itb.prefetch_faults             0                       # Number of TLB faults due to prefetch
system.switch_cpus1.itb.domain_faults               0                       # Number of TLB faults due to domain restrictions
system.switch_cpus1.itb.perms_faults                0                       # Number of TLB faults due to permissions restrictions
system.switch_cpus1.itb.read_accesses               0                       # DTB read accesses
system.switch_cpus1.itb.write_accesses              0                       # DTB write accesses
system.switch_cpus1.itb.inst_accesses               0                       # ITB inst accesses
system.switch_cpus1.itb.hits                        0                       # DTB hits
system.switch_cpus1.itb.misses                      0                       # DTB misses
system.switch_cpus1.itb.accesses                    0                       # DTB accesses
system.cpu1.workload.num_syscalls                   0                       # Number of system calls
system.switch_cpus1.numCycles                84927955                       # number of cpu cycles simulated
system.switch_cpus1.numWorkItemsStarted             0                       # number of work items this cpu started
system.switch_cpus1.numWorkItemsCompleted            0                       # number of work items this cpu completed
system.switch_cpus1.BPredUnit.lookups        30745458                       # Number of BP lookups
system.switch_cpus1.BPredUnit.condPredicted     24986742                       # Number of conditional branches predicted
system.switch_cpus1.BPredUnit.condIncorrect      2100723                       # Number of conditional branches incorrect
system.switch_cpus1.BPredUnit.BTBLookups     12984847                       # Number of BTB lookups
system.switch_cpus1.BPredUnit.BTBHits        12000401                       # Number of BTB hits
system.switch_cpus1.BPredUnit.BTBCorrect            0                       # Number of correct BTB predictions (this stat may not work properly.
system.switch_cpus1.BPredUnit.usedRAS         3245275                       # Number of times the RAS was used to get a target.
system.switch_cpus1.BPredUnit.RASInCorrect        89021                       # Number of incorrect RAS predictions.
system.switch_cpus1.fetch.icacheStallCycles     30874849                       # Number of cycles fetch is stalled on an Icache miss
system.switch_cpus1.fetch.Insts             170568779                       # Number of instructions fetch has processed
system.switch_cpus1.fetch.Branches           30745458                       # Number of branches that fetch encountered
system.switch_cpus1.fetch.predictedBranches     15245676                       # Number of branches that fetch has predicted taken
system.switch_cpus1.fetch.Cycles             37510962                       # Number of cycles fetch has run and was not squashing or blocked
system.switch_cpus1.fetch.SquashCycles       11272268                       # Number of cycles fetch has spent squashing
system.switch_cpus1.fetch.BlockedCycles       6148235                       # Number of cycles fetch has spent blocked
system.switch_cpus1.fetch.PendingTrapStallCycles           22                       # Number of stall cycles due to pending traps
system.switch_cpus1.fetch.CacheLines         15119484                       # Number of cache lines fetched
system.switch_cpus1.fetch.IcacheSquashes       901701                       # Number of outstanding Icache misses that were squashed
system.switch_cpus1.fetch.rateDist::samples     83658977                       # Number of instructions fetched each cycle (Total)
system.switch_cpus1.fetch.rateDist::mean     2.518563                       # Number of instructions fetched each cycle (Total)
system.switch_cpus1.fetch.rateDist::stdev     3.306876                       # Number of instructions fetched each cycle (Total)
system.switch_cpus1.fetch.rateDist::underflows            0      0.00%      0.00% # Number of instructions fetched each cycle (Total)
system.switch_cpus1.fetch.rateDist::0        46148015     55.16%     55.16% # Number of instructions fetched each cycle (Total)
system.switch_cpus1.fetch.rateDist::1         3297569      3.94%     59.10% # Number of instructions fetched each cycle (Total)
system.switch_cpus1.fetch.rateDist::2         2657428      3.18%     62.28% # Number of instructions fetched each cycle (Total)
system.switch_cpus1.fetch.rateDist::3         6479153      7.74%     70.02% # Number of instructions fetched each cycle (Total)
system.switch_cpus1.fetch.rateDist::4         1748346      2.09%     72.11% # Number of instructions fetched each cycle (Total)
system.switch_cpus1.fetch.rateDist::5         2259685      2.70%     74.82% # Number of instructions fetched each cycle (Total)
system.switch_cpus1.fetch.rateDist::6         1637530      1.96%     76.77% # Number of instructions fetched each cycle (Total)
system.switch_cpus1.fetch.rateDist::7          916489      1.10%     77.87% # Number of instructions fetched each cycle (Total)
system.switch_cpus1.fetch.rateDist::8        18514762     22.13%    100.00% # Number of instructions fetched each cycle (Total)
system.switch_cpus1.fetch.rateDist::overflows            0      0.00%    100.00% # Number of instructions fetched each cycle (Total)
system.switch_cpus1.fetch.rateDist::min_value            0                       # Number of instructions fetched each cycle (Total)
system.switch_cpus1.fetch.rateDist::max_value            8                       # Number of instructions fetched each cycle (Total)
system.switch_cpus1.fetch.rateDist::total     83658977                       # Number of instructions fetched each cycle (Total)
system.switch_cpus1.fetch.branchRate         0.362018                       # Number of branch fetches per cycle
system.switch_cpus1.fetch.rate               2.008394                       # Number of inst fetches per cycle
system.switch_cpus1.decode.IdleCycles        32297277                       # Number of cycles decode is idle
system.switch_cpus1.decode.BlockedCycles      5960642                       # Number of cycles decode is blocked
system.switch_cpus1.decode.RunCycles         36075293                       # Number of cycles decode is running
system.switch_cpus1.decode.UnblockCycles       242684                       # Number of cycles decode is unblocking
system.switch_cpus1.decode.SquashCycles       9083072                       # Number of cycles decode is squashing
system.switch_cpus1.decode.BranchResolved      5252609                       # Number of times decode resolved a branch
system.switch_cpus1.decode.BranchMispred        42161                       # Number of times decode detected a branch misprediction
system.switch_cpus1.decode.DecodedInsts     203913142                       # Number of instructions handled by decode
system.switch_cpus1.decode.SquashedInsts        83366                       # Number of squashed instructions handled by decode
system.switch_cpus1.rename.SquashCycles       9083072                       # Number of cycles rename is squashing
system.switch_cpus1.rename.IdleCycles        34659704                       # Number of cycles rename is idle
system.switch_cpus1.rename.BlockCycles        1326200                       # Number of cycles rename is blocking
system.switch_cpus1.rename.serializeStallCycles      1152939                       # count of cycles rename stalled for serializing inst
system.switch_cpus1.rename.RunCycles         33899549                       # Number of cycles rename is running
system.switch_cpus1.rename.UnblockCycles      3537505                       # Number of cycles rename is unblocking
system.switch_cpus1.rename.RenamedInsts     196724365                       # Number of instructions processed by rename
system.switch_cpus1.rename.ROBFullEvents        29994                       # Number of times rename has blocked due to ROB full
system.switch_cpus1.rename.IQFullEvents       1465486                       # Number of times rename has blocked due to IQ full
system.switch_cpus1.rename.LSQFullEvents      1100526                       # Number of times rename has blocked due to LSQ full
system.switch_cpus1.rename.FullRegisterEvents         1070                       # Number of times there has been no free registers
system.switch_cpus1.rename.RenamedOperands    275455522                       # Number of destination operands rename has renamed
system.switch_cpus1.rename.RenameLookups    918425989                       # Number of register rename lookups that rename has made
system.switch_cpus1.rename.int_rename_lookups    918425989                       # Number of integer rename lookups
system.switch_cpus1.rename.CommittedMaps    168816658                       # Number of HB maps that are committed
system.switch_cpus1.rename.UndoneMaps       106638825                       # Number of HB maps that are undone due to squashing
system.switch_cpus1.rename.serializingInsts        40094                       # count of serializing insts renamed
system.switch_cpus1.rename.tempSerializingInsts        22500                       # count of temporary serializing insts renamed
system.switch_cpus1.rename.skidInsts          9704223                       # count of insts added to the skid buffer
system.switch_cpus1.memDep0.insertedLoads     18329720                       # Number of loads inserted to the mem dependence unit.
system.switch_cpus1.memDep0.insertedStores      9343730                       # Number of stores inserted to the mem dependence unit.
system.switch_cpus1.memDep0.conflictingLoads       146815                       # Number of conflicting loads.
system.switch_cpus1.memDep0.conflictingStores      3076946                       # Number of conflicting stores.
system.switch_cpus1.iq.iqInstsAdded         186020039                       # Number of instructions added to the IQ (excludes non-spec)
system.switch_cpus1.iq.iqNonSpecInstsAdded        38571                       # Number of non-speculative instructions added to the IQ
system.switch_cpus1.iq.iqInstsIssued        147777553                       # Number of instructions issued
system.switch_cpus1.iq.iqSquashedInstsIssued       285517                       # Number of squashed instructions issued
system.switch_cpus1.iq.iqSquashedInstsExamined     64268499                       # Number of squashed instructions iterated over during squash; mainly for profiling
system.switch_cpus1.iq.iqSquashedOperandsExamined    196280247                       # Number of squashed operands that are examined and possibly removed from graph
system.switch_cpus1.iq.iqSquashedNonSpecRemoved         5867                       # Number of squashed non-spec instructions that were removed
system.switch_cpus1.iq.issued_per_cycle::samples     83658977                       # Number of insts issued each cycle
system.switch_cpus1.iq.issued_per_cycle::mean     1.766428                       # Number of insts issued each cycle
system.switch_cpus1.iq.issued_per_cycle::stdev     1.887182                       # Number of insts issued each cycle
system.switch_cpus1.iq.issued_per_cycle::underflows            0      0.00%      0.00% # Number of insts issued each cycle
system.switch_cpus1.iq.issued_per_cycle::0     28906711     34.55%     34.55% # Number of insts issued each cycle
system.switch_cpus1.iq.issued_per_cycle::1     18039923     21.56%     56.12% # Number of insts issued each cycle
system.switch_cpus1.iq.issued_per_cycle::2     11839772     14.15%     70.27% # Number of insts issued each cycle
system.switch_cpus1.iq.issued_per_cycle::3      8755715     10.47%     80.74% # Number of insts issued each cycle
system.switch_cpus1.iq.issued_per_cycle::4      7530305      9.00%     89.74% # Number of insts issued each cycle
system.switch_cpus1.iq.issued_per_cycle::5      3902227      4.66%     94.40% # Number of insts issued each cycle
system.switch_cpus1.iq.issued_per_cycle::6      3344280      4.00%     98.40% # Number of insts issued each cycle
system.switch_cpus1.iq.issued_per_cycle::7       627446      0.75%     99.15% # Number of insts issued each cycle
system.switch_cpus1.iq.issued_per_cycle::8       712598      0.85%    100.00% # Number of insts issued each cycle
system.switch_cpus1.iq.issued_per_cycle::overflows            0      0.00%    100.00% # Number of insts issued each cycle
system.switch_cpus1.iq.issued_per_cycle::min_value            0                       # Number of insts issued each cycle
system.switch_cpus1.iq.issued_per_cycle::max_value            8                       # Number of insts issued each cycle
system.switch_cpus1.iq.issued_per_cycle::total     83658977                       # Number of insts issued each cycle
system.switch_cpus1.iq.fu_full::No_OpClass            0      0.00%      0.00% # attempts to use FU when none available
system.switch_cpus1.iq.fu_full::IntAlu         866429     71.13%     71.13% # attempts to use FU when none available
system.switch_cpus1.iq.fu_full::IntMult             4      0.00%     71.13% # attempts to use FU when none available
system.switch_cpus1.iq.fu_full::IntDiv              0      0.00%     71.13% # attempts to use FU when none available
system.switch_cpus1.iq.fu_full::FloatAdd            0      0.00%     71.13% # attempts to use FU when none available
system.switch_cpus1.iq.fu_full::FloatCmp            0      0.00%     71.13% # attempts to use FU when none available
system.switch_cpus1.iq.fu_full::FloatCvt            0      0.00%     71.13% # attempts to use FU when none available
system.switch_cpus1.iq.fu_full::FloatMult            0      0.00%     71.13% # attempts to use FU when none available
system.switch_cpus1.iq.fu_full::FloatDiv            0      0.00%     71.13% # attempts to use FU when none available
system.switch_cpus1.iq.fu_full::FloatSqrt            0      0.00%     71.13% # attempts to use FU when none available
system.switch_cpus1.iq.fu_full::SimdAdd             0      0.00%     71.13% # attempts to use FU when none available
system.switch_cpus1.iq.fu_full::SimdAddAcc            0      0.00%     71.13% # attempts to use FU when none available
system.switch_cpus1.iq.fu_full::SimdAlu             0      0.00%     71.13% # attempts to use FU when none available
system.switch_cpus1.iq.fu_full::SimdCmp             0      0.00%     71.13% # attempts to use FU when none available
system.switch_cpus1.iq.fu_full::SimdCvt             0      0.00%     71.13% # attempts to use FU when none available
system.switch_cpus1.iq.fu_full::SimdMisc            0      0.00%     71.13% # attempts to use FU when none available
system.switch_cpus1.iq.fu_full::SimdMult            0      0.00%     71.13% # attempts to use FU when none available
system.switch_cpus1.iq.fu_full::SimdMultAcc            0      0.00%     71.13% # attempts to use FU when none available
system.switch_cpus1.iq.fu_full::SimdShift            0      0.00%     71.13% # attempts to use FU when none available
system.switch_cpus1.iq.fu_full::SimdShiftAcc            0      0.00%     71.13% # attempts to use FU when none available
system.switch_cpus1.iq.fu_full::SimdSqrt            0      0.00%     71.13% # attempts to use FU when none available
system.switch_cpus1.iq.fu_full::SimdFloatAdd            0      0.00%     71.13% # attempts to use FU when none available
system.switch_cpus1.iq.fu_full::SimdFloatAlu            0      0.00%     71.13% # attempts to use FU when none available
system.switch_cpus1.iq.fu_full::SimdFloatCmp            0      0.00%     71.13% # attempts to use FU when none available
system.switch_cpus1.iq.fu_full::SimdFloatCvt            0      0.00%     71.13% # attempts to use FU when none available
system.switch_cpus1.iq.fu_full::SimdFloatDiv            0      0.00%     71.13% # attempts to use FU when none available
system.switch_cpus1.iq.fu_full::SimdFloatMisc            0      0.00%     71.13% # attempts to use FU when none available
system.switch_cpus1.iq.fu_full::SimdFloatMult            0      0.00%     71.13% # attempts to use FU when none available
system.switch_cpus1.iq.fu_full::SimdFloatMultAcc            0      0.00%     71.13% # attempts to use FU when none available
system.switch_cpus1.iq.fu_full::SimdFloatSqrt            0      0.00%     71.13% # attempts to use FU when none available
system.switch_cpus1.iq.fu_full::MemRead        176221     14.47%     85.60% # attempts to use FU when none available
system.switch_cpus1.iq.fu_full::MemWrite       175418     14.40%    100.00% # attempts to use FU when none available
system.switch_cpus1.iq.fu_full::IprAccess            0      0.00%    100.00% # attempts to use FU when none available
system.switch_cpus1.iq.fu_full::InstPrefetch            0      0.00%    100.00% # attempts to use FU when none available
system.switch_cpus1.iq.FU_type_0::No_OpClass            0      0.00%      0.00% # Type of FU issued
system.switch_cpus1.iq.FU_type_0::IntAlu    123131126     83.32%     83.32% # Type of FU issued
system.switch_cpus1.iq.FU_type_0::IntMult      2103008      1.42%     84.75% # Type of FU issued
system.switch_cpus1.iq.FU_type_0::IntDiv            0      0.00%     84.75% # Type of FU issued
system.switch_cpus1.iq.FU_type_0::FloatAdd            0      0.00%     84.75% # Type of FU issued
system.switch_cpus1.iq.FU_type_0::FloatCmp            0      0.00%     84.75% # Type of FU issued
system.switch_cpus1.iq.FU_type_0::FloatCvt            0      0.00%     84.75% # Type of FU issued
system.switch_cpus1.iq.FU_type_0::FloatMult            0      0.00%     84.75% # Type of FU issued
system.switch_cpus1.iq.FU_type_0::FloatDiv            0      0.00%     84.75% # Type of FU issued
system.switch_cpus1.iq.FU_type_0::FloatSqrt            0      0.00%     84.75% # Type of FU issued
system.switch_cpus1.iq.FU_type_0::SimdAdd            0      0.00%     84.75% # Type of FU issued
system.switch_cpus1.iq.FU_type_0::SimdAddAcc            0      0.00%     84.75% # Type of FU issued
system.switch_cpus1.iq.FU_type_0::SimdAlu            0      0.00%     84.75% # Type of FU issued
system.switch_cpus1.iq.FU_type_0::SimdCmp            0      0.00%     84.75% # Type of FU issued
system.switch_cpus1.iq.FU_type_0::SimdCvt            0      0.00%     84.75% # Type of FU issued
system.switch_cpus1.iq.FU_type_0::SimdMisc            0      0.00%     84.75% # Type of FU issued
system.switch_cpus1.iq.FU_type_0::SimdMult            0      0.00%     84.75% # Type of FU issued
system.switch_cpus1.iq.FU_type_0::SimdMultAcc            0      0.00%     84.75% # Type of FU issued
system.switch_cpus1.iq.FU_type_0::SimdShift            0      0.00%     84.75% # Type of FU issued
system.switch_cpus1.iq.FU_type_0::SimdShiftAcc            0      0.00%     84.75% # Type of FU issued
system.switch_cpus1.iq.FU_type_0::SimdSqrt            0      0.00%     84.75% # Type of FU issued
system.switch_cpus1.iq.FU_type_0::SimdFloatAdd            0      0.00%     84.75% # Type of FU issued
system.switch_cpus1.iq.FU_type_0::SimdFloatAlu            0      0.00%     84.75% # Type of FU issued
system.switch_cpus1.iq.FU_type_0::SimdFloatCmp            0      0.00%     84.75% # Type of FU issued
system.switch_cpus1.iq.FU_type_0::SimdFloatCvt            0      0.00%     84.75% # Type of FU issued
system.switch_cpus1.iq.FU_type_0::SimdFloatDiv            0      0.00%     84.75% # Type of FU issued
system.switch_cpus1.iq.FU_type_0::SimdFloatMisc        16352      0.01%     84.76% # Type of FU issued
system.switch_cpus1.iq.FU_type_0::SimdFloatMult            0      0.00%     84.76% # Type of FU issued
system.switch_cpus1.iq.FU_type_0::SimdFloatMultAcc            0      0.00%     84.76% # Type of FU issued
system.switch_cpus1.iq.FU_type_0::SimdFloatSqrt            0      0.00%     84.76% # Type of FU issued
system.switch_cpus1.iq.FU_type_0::MemRead     14672778      9.93%     94.69% # Type of FU issued
system.switch_cpus1.iq.FU_type_0::MemWrite      7854289      5.31%    100.00% # Type of FU issued
system.switch_cpus1.iq.FU_type_0::IprAccess            0      0.00%    100.00% # Type of FU issued
system.switch_cpus1.iq.FU_type_0::InstPrefetch            0      0.00%    100.00% # Type of FU issued
system.switch_cpus1.iq.FU_type_0::total     147777553                       # Type of FU issued
system.switch_cpus1.iq.rate                  1.740034                       # Inst issue rate
system.switch_cpus1.iq.fu_busy_cnt            1218072                       # FU busy when requested
system.switch_cpus1.iq.fu_busy_rate          0.008243                       # FU busy rate (busy events/executed inst)
system.switch_cpus1.iq.int_inst_queue_reads    380717671                       # Number of integer instruction queue reads
system.switch_cpus1.iq.int_inst_queue_writes    250327747                       # Number of integer instruction queue writes
system.switch_cpus1.iq.int_inst_queue_wakeup_accesses    144009029                       # Number of integer instruction queue wakeup accesses
system.switch_cpus1.iq.fp_inst_queue_reads            0                       # Number of floating instruction queue reads
system.switch_cpus1.iq.fp_inst_queue_writes            0                       # Number of floating instruction queue writes
system.switch_cpus1.iq.fp_inst_queue_wakeup_accesses            0                       # Number of floating instruction queue wakeup accesses
system.switch_cpus1.iq.int_alu_accesses     148995625                       # Number of integer alu accesses
system.switch_cpus1.iq.fp_alu_accesses              0                       # Number of floating point alu accesses
system.switch_cpus1.iew.lsq.thread0.forwLoads       554503                       # Number of loads that had data forwarded from stores
system.switch_cpus1.iew.lsq.thread0.invAddrLoads            0                       # Number of loads ignored due to an invalid address
system.switch_cpus1.iew.lsq.thread0.squashedLoads      7219413                       # Number of loads squashed
system.switch_cpus1.iew.lsq.thread0.ignoredResponses         2943                       # Number of memory responses ignored because the instruction is squashed
system.switch_cpus1.iew.lsq.thread0.memOrderViolation          639                       # Number of memory ordering violations
system.switch_cpus1.iew.lsq.thread0.squashedStores      2395298                       # Number of stores squashed
system.switch_cpus1.iew.lsq.thread0.invAddrSwpfs            0                       # Number of software prefetches ignored due to an invalid address
system.switch_cpus1.iew.lsq.thread0.blockedLoads            0                       # Number of blocked loads due to partial load-store forwarding
system.switch_cpus1.iew.lsq.thread0.rescheduledLoads            0                       # Number of loads that were rescheduled
system.switch_cpus1.iew.lsq.thread0.cacheBlocked            0                       # Number of times an access to memory failed due to the cache being blocked
system.switch_cpus1.iew.iewIdleCycles               0                       # Number of cycles IEW is idle
system.switch_cpus1.iew.iewSquashCycles       9083072                       # Number of cycles IEW is squashing
system.switch_cpus1.iew.iewBlockCycles         547674                       # Number of cycles IEW is blocking
system.switch_cpus1.iew.iewUnblockCycles        80474                       # Number of cycles IEW is unblocking
system.switch_cpus1.iew.iewDispatchedInsts    186058612                       # Number of instructions dispatched to IQ
system.switch_cpus1.iew.iewDispSquashedInsts       411525                       # Number of squashed instructions skipped by dispatch
system.switch_cpus1.iew.iewDispLoadInsts     18329720                       # Number of dispatched load instructions
system.switch_cpus1.iew.iewDispStoreInsts      9343730                       # Number of dispatched store instructions
system.switch_cpus1.iew.iewDispNonSpecInsts        22219                       # Number of dispatched non-speculative instructions
system.switch_cpus1.iew.iewIQFullEvents         71961                       # Number of times the IQ has become full, causing a stall
system.switch_cpus1.iew.iewLSQFullEvents            0                       # Number of times the LSQ has become full, causing a stall
system.switch_cpus1.iew.memOrderViolationEvents          639                       # Number of memory order violations
system.switch_cpus1.iew.predictedTakenIncorrect      1259158                       # Number of branches that were predicted taken incorrectly
system.switch_cpus1.iew.predictedNotTakenIncorrect      1178295                       # Number of branches that were predicted not taken incorrectly
system.switch_cpus1.iew.branchMispredicts      2437453                       # Number of branch mispredicts detected at execute
system.switch_cpus1.iew.iewExecutedInsts    145423481                       # Number of executed instructions
system.switch_cpus1.iew.iewExecLoadInsts     13766585                       # Number of load instructions executed
system.switch_cpus1.iew.iewExecSquashedInsts      2354071                       # Number of squashed instructions skipped in execute
system.switch_cpus1.iew.exec_swp                    0                       # number of swp insts executed
system.switch_cpus1.iew.exec_nop                    2                       # number of nop insts executed
system.switch_cpus1.iew.exec_refs            21414498                       # number of memory reference insts executed
system.switch_cpus1.iew.exec_branches        20516543                       # Number of branches executed
system.switch_cpus1.iew.exec_stores           7647913                       # Number of stores executed
system.switch_cpus1.iew.exec_rate            1.712316                       # Inst execution rate
system.switch_cpus1.iew.wb_sent             144105241                       # cumulative count of insts sent to commit
system.switch_cpus1.iew.wb_count            144009029                       # cumulative count of insts written-back
system.switch_cpus1.iew.wb_producers         93835822                       # num instructions producing a value
system.switch_cpus1.iew.wb_consumers        264936124                       # num instructions consuming a value
system.switch_cpus1.iew.wb_penalized                0                       # number of instrctions required to write to 'other' IQ
system.switch_cpus1.iew.wb_rate              1.695661                       # insts written-back per cycle
system.switch_cpus1.iew.wb_fanout            0.354183                       # average fanout of values written-back
system.switch_cpus1.iew.wb_penalized_rate            0                       # fraction of instructions written-back that wrote to 'other' IQ
system.switch_cpus1.commit.commitCommittedInsts     98898856                       # The number of committed instructions
system.switch_cpus1.commit.commitCommittedOps    121457352                       # The number of committed instructions
system.switch_cpus1.commit.commitSquashedInsts     64602006                       # The number of squashed insts skipped by commit
system.switch_cpus1.commit.commitNonSpecStalls        32704                       # The number of times commit has been forced to stall to communicate backwards
[...]
system.cpu3.icache.ReadReq_avg_miss_latency::total 43808.187500                       # average ReadReq miss latency
system.cpu3.icache.demand_avg_miss_latency::switch_cpus3.inst 43808.187500                       # average overall miss latency
system.cpu3.icache.demand_avg_miss_latency::total 43808.187500                       # average overall miss latency
system.cpu3.icache.overall_avg_miss_latency::switch_cpus3.inst 43808.187500                       # average overall miss latency
system.cpu3.icache.overall_avg_miss_latency::total 43808.187500                       # average overall miss latency
system.cpu3.icache.blocked_cycles::no_mshrs            0                       # number of cycles access was blocked
system.cpu3.icache.blocked_cycles::no_targets            0                       # number of cycles access was blocked
system.cpu3.icache.blocked::no_mshrs                0                       # number of cycles access was blocked
system.cpu3.icache.blocked::no_targets              0                       # number of cycles access was blocked
system.cpu3.icache.avg_blocked_cycles::no_mshrs          nan                       # average number of cycles each access was blocked
system.cpu3.icache.avg_blocked_cycles::no_targets          nan                       # average number of cycles each access was blocked
system.cpu3.icache.fast_writes                      0                       # number of fast writes performed
system.cpu3.icache.cache_copies                     0                       # number of cache copies performed
system.cpu3.icache.ReadReq_mshr_hits::switch_cpus3.inst            3                       # number of ReadReq MSHR hits
system.cpu3.icache.ReadReq_mshr_hits::total            3                       # number of ReadReq MSHR hits
system.cpu3.icache.demand_mshr_hits::switch_cpus3.inst            3                       # number of demand (read+write) MSHR hits
system.cpu3.icache.demand_mshr_hits::total            3                       # number of demand (read+write) MSHR hits
system.cpu3.icache.overall_mshr_hits::switch_cpus3.inst            3                       # number of overall MSHR hits
system.cpu3.icache.overall_mshr_hits::total            3                       # number of overall MSHR hits
system.cpu3.icache.ReadReq_mshr_misses::switch_cpus3.inst           13                       # number of ReadReq MSHR misses
system.cpu3.icache.ReadReq_mshr_misses::total           13                       # number of ReadReq MSHR misses
system.cpu3.icache.demand_mshr_misses::switch_cpus3.inst           13                       # number of demand (read+write) MSHR misses
system.cpu3.icache.demand_mshr_misses::total           13                       # number of demand (read+write) MSHR misses
system.cpu3.icache.overall_mshr_misses::switch_cpus3.inst           13                       # number of overall MSHR misses
system.cpu3.icache.overall_mshr_misses::total           13                       # number of overall MSHR misses
system.cpu3.icache.ReadReq_mshr_miss_latency::switch_cpus3.inst       535084                       # number of ReadReq MSHR miss cycles
system.cpu3.icache.ReadReq_mshr_miss_latency::total       535084                       # number of ReadReq MSHR miss cycles
system.cpu3.icache.demand_mshr_miss_latency::switch_cpus3.inst       535084                       # number of demand (read+write) MSHR miss cycles
system.cpu3.icache.demand_mshr_miss_latency::total       535084                       # number of demand (read+write) MSHR miss cycles
system.cpu3.icache.overall_mshr_miss_latency::switch_cpus3.inst       535084                       # number of overall MSHR miss cycles
system.cpu3.icache.overall_mshr_miss_latency::total       535084                       # number of overall MSHR miss cycles
system.cpu3.icache.ReadReq_mshr_miss_rate::switch_cpus3.inst     0.000001                       # mshr miss rate for ReadReq accesses
system.cpu3.icache.ReadReq_mshr_miss_rate::total     0.000001                       # mshr miss rate for ReadReq accesses
system.cpu3.icache.demand_mshr_miss_rate::switch_cpus3.inst     0.000001                       # mshr miss rate for demand accesses
system.cpu3.icache.demand_mshr_miss_rate::total     0.000001                       # mshr miss rate for demand accesses
system.cpu3.icache.overall_mshr_miss_rate::switch_cpus3.inst     0.000001                       # mshr miss rate for overall accesses
system.cpu3.icache.overall_mshr_miss_rate::total     0.000001                       # mshr miss rate for overall accesses
system.cpu3.icache.ReadReq_avg_mshr_miss_latency::switch_cpus3.inst 41160.307692                       # average ReadReq mshr miss latency
system.cpu3.icache.ReadReq_avg_mshr_miss_latency::total 41160.307692                       # average ReadReq mshr miss latency
system.cpu3.icache.demand_avg_mshr_miss_latency::switch_cpus3.inst 41160.307692                       # average overall mshr miss latency
system.cpu3.icache.demand_avg_mshr_miss_latency::total 41160.307692                       # average overall mshr miss latency
system.cpu3.icache.overall_avg_mshr_miss_latency::switch_cpus3.inst 41160.307692                       # average overall mshr miss latency
system.cpu3.icache.overall_avg_mshr_miss_latency::total 41160.307692                       # average overall mshr miss latency
system.cpu3.icache.no_allocate_misses               0                       # Number of misses that were no-allocate
system.cpu3.dcache.replacements                 52307                       # number of replacements
system.cpu3.dcache.tagsinuse                      256                       # Cycle average of tags in use
system.cpu3.dcache.total_refs               174157147                       # Total number of references to valid blocks.
system.cpu3.dcache.sampled_refs                 52563                       # Sample count of references to valid blocks.
system.cpu3.dcache.avg_refs               3313.303027                       # Average number of references to valid blocks.
system.cpu3.dcache.warmup_cycle                     0                       # Cycle when the warmup percentage was hit.
system.cpu3.dcache.occ_blocks::switch_cpus3.data   233.219744                       # Average occupied blocks per requestor
system.cpu3.dcache.occ_blocks::cpu3.data    22.780256                       # Average occupied blocks per requestor
system.cpu3.dcache.occ_percent::switch_cpus3.data     0.911015                       # Average percentage of cache occupancy
system.cpu3.dcache.occ_percent::cpu3.data     0.088985                       # Average percentage of cache occupancy
system.cpu3.dcache.occ_percent::total               1                       # Average percentage of cache occupancy
system.cpu3.dcache.ReadReq_hits::switch_cpus3.data     10452518                       # number of ReadReq hits
system.cpu3.dcache.ReadReq_hits::total       10452518                       # number of ReadReq hits
system.cpu3.dcache.WriteReq_hits::switch_cpus3.data      7201083                       # number of WriteReq hits
system.cpu3.dcache.WriteReq_hits::total       7201083                       # number of WriteReq hits
system.cpu3.dcache.LoadLockedReq_hits::switch_cpus3.data        17679                       # number of LoadLockedReq hits
system.cpu3.dcache.LoadLockedReq_hits::total        17679                       # number of LoadLockedReq hits
system.cpu3.dcache.StoreCondReq_hits::switch_cpus3.data        16706                       # number of StoreCondReq hits
system.cpu3.dcache.StoreCondReq_hits::total        16706                       # number of StoreCondReq hits
system.cpu3.dcache.demand_hits::switch_cpus3.data     17653601                       # number of demand (read+write) hits
system.cpu3.dcache.demand_hits::total        17653601                       # number of demand (read+write) hits
system.cpu3.dcache.overall_hits::switch_cpus3.data     17653601                       # number of overall hits
system.cpu3.dcache.overall_hits::total       17653601                       # number of overall hits
system.cpu3.dcache.ReadReq_misses::switch_cpus3.data       133950                       # number of ReadReq misses
system.cpu3.dcache.ReadReq_misses::total       133950                       # number of ReadReq misses
system.cpu3.dcache.WriteReq_misses::switch_cpus3.data         2987                       # number of WriteReq misses
system.cpu3.dcache.WriteReq_misses::total         2987                       # number of WriteReq misses
system.cpu3.dcache.demand_misses::switch_cpus3.data       136937                       # number of demand (read+write) misses
system.cpu3.dcache.demand_misses::total        136937                       # number of demand (read+write) misses
system.cpu3.dcache.overall_misses::switch_cpus3.data       136937                       # number of overall misses
system.cpu3.dcache.overall_misses::total       136937                       # number of overall misses
system.cpu3.dcache.ReadReq_miss_latency::switch_cpus3.data   4136325418                       # number of ReadReq miss cycles
system.cpu3.dcache.ReadReq_miss_latency::total   4136325418                       # number of ReadReq miss cycles
system.cpu3.dcache.WriteReq_miss_latency::switch_cpus3.data    171362198                       # number of WriteReq miss cycles
system.cpu3.dcache.WriteReq_miss_latency::total    171362198                       # number of WriteReq miss cycles
system.cpu3.dcache.demand_miss_latency::switch_cpus3.data   4307687616                       # number of demand (read+write) miss cycles
system.cpu3.dcache.demand_miss_latency::total   4307687616                       # number of demand (read+write) miss cycles
system.cpu3.dcache.overall_miss_latency::switch_cpus3.data   4307687616                       # number of overall miss cycles
system.cpu3.dcache.overall_miss_latency::total   4307687616                       # number of overall miss cycles
system.cpu3.dcache.ReadReq_accesses::switch_cpus3.data     10586468                       # number of ReadReq accesses(hits+misses)
system.cpu3.dcache.ReadReq_accesses::total     10586468                       # number of ReadReq accesses(hits+misses)
system.cpu3.dcache.WriteReq_accesses::switch_cpus3.data      7204070                       # number of WriteReq accesses(hits+misses)
system.cpu3.dcache.WriteReq_accesses::total      7204070                       # number of WriteReq accesses(hits+misses)
system.cpu3.dcache.LoadLockedReq_accesses::switch_cpus3.data        17679                       # number of LoadLockedReq accesses(hits+misses)
system.cpu3.dcache.LoadLockedReq_accesses::total        17679                       # number of LoadLockedReq accesses(hits+misses)
system.cpu3.dcache.StoreCondReq_accesses::switch_cpus3.data        16706                       # number of StoreCondReq accesses(hits+misses)
system.cpu3.dcache.StoreCondReq_accesses::total        16706                       # number of StoreCondReq accesses(hits+misses)
system.cpu3.dcache.demand_accesses::switch_cpus3.data     17790538                       # number of demand (read+write) accesses
system.cpu3.dcache.demand_accesses::total     17790538                       # number of demand (read+write) accesses
system.cpu3.dcache.overall_accesses::switch_cpus3.data     17790538                       # number of overall (read+write) accesses
system.cpu3.dcache.overall_accesses::total     17790538                       # number of overall (read+write) accesses
system.cpu3.dcache.ReadReq_miss_rate::switch_cpus3.data     0.012653                       # miss rate for ReadReq accesses
system.cpu3.dcache.ReadReq_miss_rate::total     0.012653                       # miss rate for ReadReq accesses
system.cpu3.dcache.WriteReq_miss_rate::switch_cpus3.data     0.000415                       # miss rate for WriteReq accesses
system.cpu3.dcache.WriteReq_miss_rate::total     0.000415                       # miss rate for WriteReq accesses
system.cpu3.dcache.demand_miss_rate::switch_cpus3.data     0.007697                       # miss rate for demand accesses
system.cpu3.dcache.demand_miss_rate::total     0.007697                       # miss rate for demand accesses
system.cpu3.dcache.overall_miss_rate::switch_cpus3.data     0.007697                       # miss rate for overall accesses
system.cpu3.dcache.overall_miss_rate::total     0.007697                       # miss rate for overall accesses
system.cpu3.dcache.ReadReq_avg_miss_latency::switch_cpus3.data 30879.622381                       # average ReadReq miss latency
system.cpu3.dcache.ReadReq_avg_miss_latency::total 30879.622381                       # average ReadReq miss latency
system.cpu3.dcache.WriteReq_avg_miss_latency::switch_cpus3.data 57369.333110                       # average WriteReq miss latency
system.cpu3.dcache.WriteReq_avg_miss_latency::total 57369.333110                       # average WriteReq miss latency
system.cpu3.dcache.demand_avg_miss_latency::switch_cpus3.data 31457.441130                       # average overall miss latency
system.cpu3.dcache.demand_avg_miss_latency::total 31457.441130                       # average overall miss latency
system.cpu3.dcache.overall_avg_miss_latency::switch_cpus3.data 31457.441130                       # average overall miss latency
system.cpu3.dcache.overall_avg_miss_latency::total 31457.441130                       # average overall miss latency
system.cpu3.dcache.blocked_cycles::no_mshrs            0                       # number of cycles access was blocked
system.cpu3.dcache.blocked_cycles::no_targets       423345                       # number of cycles access was blocked
system.cpu3.dcache.blocked::no_mshrs                0                       # number of cycles access was blocked
system.cpu3.dcache.blocked::no_targets             11                       # number of cycles access was blocked
system.cpu3.dcache.avg_blocked_cycles::no_mshrs          nan                       # average number of cycles each access was blocked
system.cpu3.dcache.avg_blocked_cycles::no_targets 38485.909091                       # average number of cycles each access was blocked
system.cpu3.dcache.fast_writes                      0                       # number of fast writes performed
system.cpu3.dcache.cache_copies                     0                       # number of cache copies performed
system.cpu3.dcache.writebacks::writebacks        25607                       # number of writebacks
system.cpu3.dcache.writebacks::total            25607                       # number of writebacks
system.cpu3.dcache.ReadReq_mshr_hits::switch_cpus3.data        81644                       # number of ReadReq MSHR hits
system.cpu3.dcache.ReadReq_mshr_hits::total        81644                       # number of ReadReq MSHR hits
system.cpu3.dcache.WriteReq_mshr_hits::switch_cpus3.data         2986                       # number of WriteReq MSHR hits
system.cpu3.dcache.WriteReq_mshr_hits::total         2986                       # number of WriteReq MSHR hits
system.cpu3.dcache.demand_mshr_hits::switch_cpus3.data        84630                       # number of demand (read+write) MSHR hits
system.cpu3.dcache.demand_mshr_hits::total        84630                       # number of demand (read+write) MSHR hits
system.cpu3.dcache.overall_mshr_hits::switch_cpus3.data        84630                       # number of overall MSHR hits
system.cpu3.dcache.overall_mshr_hits::total        84630                       # number of overall MSHR hits
system.cpu3.dcache.ReadReq_mshr_misses::switch_cpus3.data        52306                       # number of ReadReq MSHR misses
system.cpu3.dcache.ReadReq_mshr_misses::total        52306                       # number of ReadReq MSHR misses
system.cpu3.dcache.WriteReq_mshr_misses::switch_cpus3.data            1                       # number of WriteReq MSHR misses
system.cpu3.dcache.WriteReq_mshr_misses::total            1                       # number of WriteReq MSHR misses
system.cpu3.dcache.demand_mshr_misses::switch_cpus3.data        52307                       # number of demand (read+write) MSHR misses
system.cpu3.dcache.demand_mshr_misses::total        52307                       # number of demand (read+write) MSHR misses
system.cpu3.dcache.overall_mshr_misses::switch_cpus3.data        52307                       # number of overall MSHR misses
system.cpu3.dcache.overall_mshr_misses::total        52307                       # number of overall MSHR misses
system.cpu3.dcache.ReadReq_mshr_miss_latency::switch_cpus3.data    805497426                       # number of ReadReq MSHR miss cycles
system.cpu3.dcache.ReadReq_mshr_miss_latency::total    805497426                       # number of ReadReq MSHR miss cycles
system.cpu3.dcache.WriteReq_mshr_miss_latency::switch_cpus3.data        58588                       # number of WriteReq MSHR miss cycles
system.cpu3.dcache.WriteReq_mshr_miss_latency::total        58588                       # number of WriteReq MSHR miss cycles
system.cpu3.dcache.demand_mshr_miss_latency::switch_cpus3.data    805556014                       # number of demand (read+write) MSHR miss cycles
system.cpu3.dcache.demand_mshr_miss_latency::total    805556014                       # number of demand (read+write) MSHR miss cycles
system.cpu3.dcache.overall_mshr_miss_latency::switch_cpus3.data    805556014                       # number of overall MSHR miss cycles
system.cpu3.dcache.overall_mshr_miss_latency::total    805556014                       # number of overall MSHR miss cycles
system.cpu3.dcache.ReadReq_mshr_miss_rate::switch_cpus3.data     0.004941                       # mshr miss rate for ReadReq accesses
system.cpu3.dcache.ReadReq_mshr_miss_rate::total     0.004941                       # mshr miss rate for ReadReq accesses
system.cpu3.dcache.WriteReq_mshr_miss_rate::switch_cpus3.data     0.000000                       # mshr miss rate for WriteReq accesses
system.cpu3.dcache.WriteReq_mshr_miss_rate::total     0.000000                       # mshr miss rate for WriteReq accesses
system.cpu3.dcache.demand_mshr_miss_rate::switch_cpus3.data     0.002940                       # mshr miss rate for demand accesses
system.cpu3.dcache.demand_mshr_miss_rate::total     0.002940                       # mshr miss rate for demand accesses
system.cpu3.dcache.overall_mshr_miss_rate::switch_cpus3.data     0.002940                       # mshr miss rate for overall accesses
system.cpu3.dcache.overall_mshr_miss_rate::total     0.002940                       # mshr miss rate for overall accesses
system.cpu3.dcache.ReadReq_avg_mshr_miss_latency::switch_cpus3.data 15399.713723                       # average ReadReq mshr miss latency
system.cpu3.dcache.ReadReq_avg_mshr_miss_latency::total 15399.713723                       # average ReadReq mshr miss latency
system.cpu3.dcache.WriteReq_avg_mshr_miss_latency::switch_cpus3.data        58588                       # average WriteReq mshr miss latency
system.cpu3.dcache.WriteReq_avg_mshr_miss_latency::total        58588                       # average WriteReq mshr miss latency
system.cpu3.dcache.demand_avg_mshr_miss_latency::switch_cpus3.data 15400.539392                       # average overall mshr miss latency
system.cpu3.dcache.demand_avg_mshr_miss_latency::total 15400.539392                       # average overall mshr miss latency
system.cpu3.dcache.overall_avg_mshr_miss_latency::switch_cpus3.data 15400.539392                       # average overall mshr miss latency
system.cpu3.dcache.overall_avg_mshr_miss_latency::total 15400.539392                       # average overall mshr miss latency
system.cpu3.dcache.no_allocate_misses               0                       # Number of misses that were no-allocate

---------- End Simulation Statistics   ----------
