
---------- Begin Simulation Statistics ----------
sim_seconds                                  0.118176                       # Number of seconds simulated
sim_ticks                                118175808261                       # Number of ticks simulated
final_tick                               1176034629574                       # Number of ticks from beginning of simulation (restored from checkpoints and never reset)
sim_freq                                 1000000000000                       # Frequency of simulated ticks
host_inst_rate                                  48638                       # Simulator instruction rate (inst/s)
host_op_rate                                    61488                       # Simulator op (including micro ops) rate (op/s)
host_tick_rate                                2611763                       # Simulator tick rate (ticks/s)
host_mem_usage                               16912900                       # Number of bytes of host memory used
host_seconds                                 45247.53                       # Real time elapsed on the host
sim_insts                                  2200751527                       # Number of instructions simulated
sim_ops                                    2782158276                       # Number of ops (including micro ops) simulated
system.physmem.bytes_read::switch_cpus0.inst         1280                       # Number of bytes read from this memory
system.physmem.bytes_read::switch_cpus0.data       434176                       # Number of bytes read from this memory
system.physmem.bytes_read::switch_cpus1.inst         1536                       # Number of bytes read from this memory
system.physmem.bytes_read::switch_cpus1.data       265216                       # Number of bytes read from this memory
system.physmem.bytes_read::total               702208                       # Number of bytes read from this memory
system.physmem.bytes_inst_read::switch_cpus0.inst         1280                       # Number of instructions bytes read from this memory
system.physmem.bytes_inst_read::switch_cpus1.inst         1536                       # Number of instructions bytes read from this memory
system.physmem.bytes_inst_read::total            2816                       # Number of instructions bytes read from this memory
system.physmem.bytes_written::writebacks       697600                       # Number of bytes written to this memory
system.physmem.bytes_written::total            697600                       # Number of bytes written to this memory
system.physmem.num_reads::switch_cpus0.inst           10                       # Number of read requests responded to by this memory
system.physmem.num_reads::switch_cpus0.data         3392                       # Number of read requests responded to by this memory
system.physmem.num_reads::switch_cpus1.inst           12                       # Number of read requests responded to by this memory
system.physmem.num_reads::switch_cpus1.data         2072                       # Number of read requests responded to by this memory
system.physmem.num_reads::total                  5486                       # Number of read requests responded to by this memory
system.physmem.num_writes::writebacks            5450                       # Number of write requests responded to by this memory
system.physmem.num_writes::functional               0                       # Number of write requests responded to by this memory
system.physmem.num_writes::interrupt                0                       # Number of write requests responded to by this memory
system.physmem.num_writes::switch_cpus0.dtb.walker            0                       # Number of write requests responded to by this memory
system.physmem.num_writes::switch_cpus0.itb.walker            0                       # Number of write requests responded to by this memory
system.physmem.num_writes::switch_cpus0.inst            0                       # Number of write requests responded to by this memory
system.physmem.num_writes::switch_cpus0.data            0                       # Number of write requests responded to by this memory
system.physmem.num_writes::switch_cpus1.dtb.walker            0                       # Number of write requests responded to by this memory
system.physmem.num_writes::switch_cpus1.itb.walker            0                       # Number of write requests responded to by this memory
system.physmem.num_writes::switch_cpus1.inst            0                       # Number of write requests responded to by this memory
system.physmem.num_writes::switch_cpus1.data            0                       # Number of write requests responded to by this memory
system.physmem.num_writes::cpu0.dtb.walker            0                       # Number of write requests responded to by this memory
system.physmem.num_writes::cpu0.itb.walker            0                       # Number of write requests responded to by this memory
system.physmem.num_writes::cpu0.inst                0                       # Number of write requests responded to by this memory
system.physmem.num_writes::cpu0.data                0                       # Number of write requests responded to by this memory
system.physmem.num_writes::cpu1.dtb.walker            0                       # Number of write requests responded to by this memory
system.physmem.num_writes::cpu1.itb.walker            0                       # Number of write requests responded to by this memory
system.physmem.num_writes::cpu1.inst                0                       # Number of write requests responded to by this memory
system.physmem.num_writes::cpu1.data                0                       # Number of write requests responded to by this memory
system.physmem.num_writes::total                 5450                       # Number of write requests responded to by this memory
system.physmem.bw_read::switch_cpus0.inst        10831                       # Total read bandwidth from this memory (bytes/s)
system.physmem.bw_read::switch_cpus0.data      3673984                       # Total read bandwidth from this memory (bytes/s)
system.physmem.bw_read::switch_cpus1.inst        12998                       # Total read bandwidth from this memory (bytes/s)
system.physmem.bw_read::switch_cpus1.data      2244250                       # Total read bandwidth from this memory (bytes/s)
system.physmem.bw_read::total                 5942062                       # Total read bandwidth from this memory (bytes/s)
system.physmem.bw_inst_read::switch_cpus0.inst        10831                       # Instruction read bandwidth from this memory (bytes/s)
system.physmem.bw_inst_read::switch_cpus1.inst        12998                       # Instruction read bandwidth from this memory (bytes/s)
system.physmem.bw_inst_read::total              23829                       # Instruction read bandwidth from this memory (bytes/s)
system.physmem.bw_write::writebacks           5903069                       # Write bandwidth from this memory (bytes/s)
system.physmem.bw_write::total                5903069                       # Write bandwidth from this memory (bytes/s)
system.physmem.bw_total::writebacks           5903069                       # Total bandwidth to/from this memory (bytes/s)
system.physmem.bw_total::switch_cpus0.inst        10831                       # Total bandwidth to/from this memory (bytes/s)
system.physmem.bw_total::switch_cpus0.data      3673984                       # Total bandwidth to/from this memory (bytes/s)
system.physmem.bw_total::switch_cpus1.inst        12998                       # Total bandwidth to/from this memory (bytes/s)
system.physmem.bw_total::switch_cpus1.data      2244250                       # Total bandwidth to/from this memory (bytes/s)
system.physmem.bw_total::total               11845132                       # Total bandwidth to/from this memory (bytes/s)
system.switch_cpus0.dtb.inst_hits                   0                       # ITB inst hits
system.switch_cpus0.dtb.inst_misses                 0                       # ITB inst misses
system.switch_cpus0.dtb.read_hits                   0                       # DTB read hits
system.switch_cpus0.dtb.read_misses                 0                       # DTB read misses
system.switch_cpus0.dtb.write_hits                  0                       # DTB write hits
system.switch_cpus0.dtb.write_misses                0                       # DTB write misses
system.switch_cpus0.dtb.flush_tlb                   0                       # Number of times complete TLB was flushed
system.switch_cpus0.dtb.flush_tlb_mva               0                       # Number of times TLB was flushed by MVA
system.switch_cpus0.dtb.flush_tlb_mva_asid            0                       # Number of times TLB was flushed by MVA & ASID
system.switch_cpus0.dtb.flush_tlb_asid              0                       # Number of times TLB was flushed by ASID
system.switch_cpus0.dtb.flush_entries               0                       # Number of entries that have been flushed from TLB
system.switch_cpus0.dtb.align_faults                0                       # Number of TLB faults due to alignment restrictions
system.switch_cpus0.dtb.prefetch_faults             0                       # Number of TLB faults due to prefetch
system.switch_cpus0.dtb.domain_faults               0                       # Number of TLB faults due to domain restrictions
system.switch_cpus0.dtb.perms_faults                0                       # Number of TLB faults due to permissions restrictions
system.switch_cpus0.dtb.read_accesses               0                       # DTB read accesses
system.switch_cpus0.dtb.write_accesses              0                       # DTB write accesses
system.switch_cpus0.dtb.inst_accesses               0                       # ITB inst accesses
system.switch_cpus0.dtb.hits                        0                       # DTB hits
system.switch_cpus0.dtb.misses                      0                       # DTB misses
system.switch_cpus0.dtb.accesses                    0                       # DTB accesses
system.switch_cpus0.itb.inst_hits                   0                       # ITB inst hits
system.switch_cpus0.itb.inst_misses                 0                       # ITB inst misses
system.switch_cpus0.itb.read_hits                   0                       # DTB read hits
system.switch_cpus0.itb.read_misses                 0                       # DTB read misses
system.switch_cpus0.itb.write_hits                  0                       # DTB write hits
system.switch_cpus0.itb.write_misses                0                       # DTB write misses
system.switch_cpus0.itb.flush_tlb                   0                       # Number of times complete TLB was flushed
system.switch_cpus0.itb.flush_tlb_mva               0                       # Number of times TLB was flushed by MVA
system.switch_cpus0.itb.flush_tlb_mva_asid            0                       # Number of times TLB was flushed by MVA & ASID
system.switch_cpus0.itb.flush_tlb_asid              0                       # Number of times TLB was flushed by ASID
system.switch_cpus0.itb.flush_entries               0                       # Number of entries that have been flushed from TLB
system.switch_cpus0.itb.align_faults                0                       # Number of TLB faults due to alignment restrictions
system.switch_cpus0.itb.prefetch_faults             0                       # Number of TLB faults due to prefetch
system.switch_cpus0.itb.domain_faults               0                       # Number of TLB faults due to domain restrictions
system.switch_cpus0.itb.perms_faults                0                       # Number of TLB faults due to permissions restrictions
system.switch_cpus0.itb.read_accesses               0                       # DTB read accesses
system.switch_cpus0.itb.write_accesses              0                       # DTB write accesses
system.switch_cpus0.itb.inst_accesses               0                       # ITB inst accesses
system.switch_cpus0.itb.hits                        0                       # DTB hits
system.switch_cpus0.itb.misses                      0                       # DTB misses
system.switch_cpus0.itb.accesses                    0                       # DTB accesses
system.cpu0.workload.num_syscalls                   0                       # Number of system calls
system.switch_cpus0.numCycles               141867718                       # number of cpu cycles simulated
system.switch_cpus0.numWorkItemsStarted             0                       # number of work items this cpu started
system.switch_cpus0.numWorkItemsCompleted            0                       # number of work items this cpu completed
system.switch_cpus0.BPredUnit.lookups        23170286                       # Number of BP lookups
system.switch_cpus0.BPredUnit.condPredicted     19080038                       # Number of conditional branches predicted
system.switch_cpus0.BPredUnit.condIncorrect      1931813                       # Number of conditional branches incorrect
system.switch_cpus0.BPredUnit.BTBLookups      9398678                       # Number of BTB lookups
system.switch_cpus0.BPredUnit.BTBHits         8667527                       # Number of BTB hits
system.switch_cpus0.BPredUnit.BTBCorrect            0                       # Number of correct BTB predictions (this stat may not work properly.
system.switch_cpus0.BPredUnit.usedRAS         2437779                       # Number of times the RAS was used to get a target.
system.switch_cpus0.BPredUnit.RASInCorrect        87888                       # Number of incorrect RAS predictions.
system.switch_cpus0.fetch.icacheStallCycles    104458792                       # Number of cycles fetch is stalled on an Icache miss
system.switch_cpus0.fetch.Insts             128031995                       # Number of instructions fetch has processed
system.switch_cpus0.fetch.Branches           23170286                       # Number of branches that fetch encountered
system.switch_cpus0.fetch.predictedBranches     11105306                       # Number of branches that fetch has predicted taken
system.switch_cpus0.fetch.Cycles             27188130                       # Number of cycles fetch has run and was not squashing or blocked
system.switch_cpus0.fetch.SquashCycles        6259965                       # Number of cycles fetch has spent squashing
system.switch_cpus0.fetch.BlockedCycles       4319883                       # Number of cycles fetch has spent blocked
system.switch_cpus0.fetch.CacheLines         12102129                       # Number of cache lines fetched
system.switch_cpus0.fetch.IcacheSquashes      1573721                       # Number of outstanding Icache misses that were squashed
system.switch_cpus0.fetch.rateDist::samples    140262921                       # Number of instructions fetched each cycle (Total)
system.switch_cpus0.fetch.rateDist::mean     1.111922                       # Number of instructions fetched each cycle (Total)
system.switch_cpus0.fetch.rateDist::stdev     2.553237                       # Number of instructions fetched each cycle (Total)
system.switch_cpus0.fetch.rateDist::underflows            0      0.00%      0.00% # Number of instructions fetched each cycle (Total)
system.switch_cpus0.fetch.rateDist::0       113074791     80.62%     80.62% # Number of instructions fetched each cycle (Total)
system.switch_cpus0.fetch.rateDist::1         2780813      1.98%     82.60% # Number of instructions fetched each cycle (Total)
system.switch_cpus0.fetch.rateDist::2         2365865      1.69%     84.29% # Number of instructions fetched each cycle (Total)
system.switch_cpus0.fetch.rateDist::3         2381603      1.70%     85.98% # Number of instructions fetched each cycle (Total)
system.switch_cpus0.fetch.rateDist::4         2266447      1.62%     87.60% # Number of instructions fetched each cycle (Total)
system.switch_cpus0.fetch.rateDist::5         1125290      0.80%     88.40% # Number of instructions fetched each cycle (Total)
system.switch_cpus0.fetch.rateDist::6          778179      0.55%     88.96% # Number of instructions fetched each cycle (Total)
system.switch_cpus0.fetch.rateDist::7         1976684      1.41%     90.37% # Number of instructions fetched each cycle (Total)
system.switch_cpus0.fetch.rateDist::8        13513249      9.63%    100.00% # Number of instructions fetched each cycle (Total)
system.switch_cpus0.fetch.rateDist::overflows            0      0.00%    100.00% # Number of instructions fetched each cycle (Total)
system.switch_cpus0.fetch.rateDist::min_value            0                       # Number of instructions fetched each cycle (Total)
system.switch_cpus0.fetch.rateDist::max_value            8                       # Number of instructions fetched each cycle (Total)
system.switch_cpus0.fetch.rateDist::total    140262921                       # Number of instructions fetched each cycle (Total)
system.switch_cpus0.fetch.branchRate         0.163323                       # Number of branch fetches per cycle
system.switch_cpus0.fetch.rate               0.902474                       # Number of inst fetches per cycle
system.switch_cpus0.decode.IdleCycles       103294227                       # Number of cycles decode is idle
system.switch_cpus0.decode.BlockedCycles      5729405                       # Number of cycles decode is blocked
system.switch_cpus0.decode.RunCycles         26840374                       # Number of cycles decode is running
system.switch_cpus0.decode.UnblockCycles       109245                       # Number of cycles decode is unblocking
system.switch_cpus0.decode.SquashCycles       4289661                       # Number of cycles decode is squashing
system.switch_cpus0.decode.BranchResolved      3731011                       # Number of times decode resolved a branch
system.switch_cpus0.decode.BranchMispred         6456                       # Number of times decode detected a branch misprediction
system.switch_cpus0.decode.DecodedInsts     154433157                       # Number of instructions handled by decode
system.switch_cpus0.decode.SquashedInsts        51092                       # Number of squashed instructions handled by decode
system.switch_cpus0.rename.SquashCycles       4289661                       # Number of cycles rename is squashing
system.switch_cpus0.rename.IdleCycles       103808144                       # Number of cycles rename is idle
system.switch_cpus0.rename.BlockCycles        3312710                       # Number of cycles rename is blocking
system.switch_cpus0.rename.serializeStallCycles      1271192                       # count of cycles rename stalled for serializing inst
system.switch_cpus0.rename.RunCycles         26424967                       # Number of cycles rename is running
system.switch_cpus0.rename.UnblockCycles      1156239                       # Number of cycles rename is unblocking
system.switch_cpus0.rename.RenamedInsts     152985986                       # Number of instructions processed by rename
system.switch_cpus0.rename.ROBFullEvents          131                       # Number of times rename has blocked due to ROB full
system.switch_cpus0.rename.IQFullEvents        399667                       # Number of times rename has blocked due to IQ full
system.switch_cpus0.rename.LSQFullEvents       622701                       # Number of times rename has blocked due to LSQ full
system.switch_cpus0.rename.FullRegisterEvents         6762                       # Number of times there has been no free registers
system.switch_cpus0.rename.RenamedOperands    214042148                       # Number of destination operands rename has renamed
system.switch_cpus0.rename.RenameLookups    713087812                       # Number of register rename lookups that rename has made
system.switch_cpus0.rename.int_rename_lookups    713087812                       # Number of integer rename lookups
system.switch_cpus0.rename.CommittedMaps    168259218                       # Number of HB maps that are committed
system.switch_cpus0.rename.UndoneMaps        45782923                       # Number of HB maps that are undone due to squashing
system.switch_cpus0.rename.serializingInsts        33746                       # count of serializing insts renamed
system.switch_cpus0.rename.tempSerializingInsts        17724                       # count of temporary serializing insts renamed
system.switch_cpus0.rename.skidInsts          3794438                       # count of insts added to the skid buffer
system.switch_cpus0.memDep0.insertedLoads     15185026                       # Number of loads inserted to the mem dependence unit.
system.switch_cpus0.memDep0.insertedStores      7902566                       # Number of stores inserted to the mem dependence unit.
system.switch_cpus0.memDep0.conflictingLoads       309436                       # Number of conflicting loads.
system.switch_cpus0.memDep0.conflictingStores      1683518                       # Number of conflicting stores.
system.switch_cpus0.iq.iqInstsAdded         149122990                       # Number of instructions added to the IQ (excludes non-spec)
system.switch_cpus0.iq.iqNonSpecInstsAdded        33744                       # Number of non-speculative instructions added to the IQ
system.switch_cpus0.iq.iqInstsIssued        139190412                       # Number of instructions issued
system.switch_cpus0.iq.iqSquashedInstsIssued       107947                       # Number of squashed instructions issued
system.switch_cpus0.iq.iqSquashedInstsExamined     25198242                       # Number of squashed instructions iterated over during squash; mainly for profiling
system.switch_cpus0.iq.iqSquashedOperandsExamined     57126761                       # Number of squashed operands that are examined and possibly removed from graph
system.switch_cpus0.iq.iqSquashedNonSpecRemoved         1700                       # Number of squashed non-spec instructions that were removed
system.switch_cpus0.iq.issued_per_cycle::samples    140262921                       # Number of insts issued each cycle
system.switch_cpus0.iq.issued_per_cycle::mean     0.992354                       # Number of insts issued each cycle
system.switch_cpus0.iq.issued_per_cycle::stdev     1.586867                       # Number of insts issued each cycle
system.switch_cpus0.iq.issued_per_cycle::underflows            0      0.00%      0.00% # Number of insts issued each cycle
system.switch_cpus0.iq.issued_per_cycle::0     82902694     59.11%     59.11% # Number of insts issued each cycle
system.switch_cpus0.iq.issued_per_cycle::1     23708094     16.90%     76.01% # Number of insts issued each cycle
system.switch_cpus0.iq.issued_per_cycle::2     11949892      8.52%     84.53% # Number of insts issued each cycle
system.switch_cpus0.iq.issued_per_cycle::3      7811508      5.57%     90.10% # Number of insts issued each cycle
system.switch_cpus0.iq.issued_per_cycle::4      6900646      4.92%     95.02% # Number of insts issued each cycle
system.switch_cpus0.iq.issued_per_cycle::5      2704715      1.93%     96.94% # Number of insts issued each cycle
system.switch_cpus0.iq.issued_per_cycle::6      3071075      2.19%     99.13% # Number of insts issued each cycle
system.switch_cpus0.iq.issued_per_cycle::7      1118975      0.80%     99.93% # Number of insts issued each cycle
system.switch_cpus0.iq.issued_per_cycle::8        95322      0.07%    100.00% # Number of insts issued each cycle
system.switch_cpus0.iq.issued_per_cycle::overflows            0      0.00%    100.00% # Number of insts issued each cycle
system.switch_cpus0.iq.issued_per_cycle::min_value            0                       # Number of insts issued each cycle
system.switch_cpus0.iq.issued_per_cycle::max_value            8                       # Number of insts issued each cycle
system.switch_cpus0.iq.issued_per_cycle::total    140262921                       # Number of insts issued each cycle
system.switch_cpus0.iq.fu_full::No_OpClass            0      0.00%      0.00% # attempts to use FU when none available
system.switch_cpus0.iq.fu_full::IntAlu         976105     74.71%     74.71% # attempts to use FU when none available
system.switch_cpus0.iq.fu_full::IntMult             0      0.00%     74.71% # attempts to use FU when none available
system.switch_cpus0.iq.fu_full::IntDiv              0      0.00%     74.71% # attempts to use FU when none available
system.switch_cpus0.iq.fu_full::FloatAdd            0      0.00%     74.71% # attempts to use FU when none available
system.switch_cpus0.iq.fu_full::FloatCmp            0      0.00%     74.71% # attempts to use FU when none available
system.switch_cpus0.iq.fu_full::FloatCvt            0      0.00%     74.71% # attempts to use FU when none available
system.switch_cpus0.iq.fu_full::FloatMult            0      0.00%     74.71% # attempts to use FU when none available
system.switch_cpus0.iq.fu_full::FloatDiv            0      0.00%     74.71% # attempts to use FU when none available
system.switch_cpus0.iq.fu_full::FloatSqrt            0      0.00%     74.71% # attempts to use FU when none available
system.switch_cpus0.iq.fu_full::SimdAdd             0      0.00%     74.71% # attempts to use FU when none available
system.switch_cpus0.iq.fu_full::SimdAddAcc            0      0.00%     74.71% # attempts to use FU when none available
system.switch_cpus0.iq.fu_full::SimdAlu             0      0.00%     74.71% # attempts to use FU when none available
system.switch_cpus0.iq.fu_full::SimdCmp             0      0.00%     74.71% # attempts to use FU when none available
system.switch_cpus0.iq.fu_full::SimdCvt             0      0.00%     74.71% # attempts to use FU when none available
system.switch_cpus0.iq.fu_full::SimdMisc            0      0.00%     74.71% # attempts to use FU when none available
system.switch_cpus0.iq.fu_full::SimdMult            0      0.00%     74.71% # attempts to use FU when none available
system.switch_cpus0.iq.fu_full::SimdMultAcc            0      0.00%     74.71% # attempts to use FU when none available
system.switch_cpus0.iq.fu_full::SimdShift            0      0.00%     74.71% # attempts to use FU when none available
system.switch_cpus0.iq.fu_full::SimdShiftAcc            0      0.00%     74.71% # attempts to use FU when none available
system.switch_cpus0.iq.fu_full::SimdSqrt            0      0.00%     74.71% # attempts to use FU when none available
system.switch_cpus0.iq.fu_full::SimdFloatAdd            0      0.00%     74.71% # attempts to use FU when none available
system.switch_cpus0.iq.fu_full::SimdFloatAlu            0      0.00%     74.71% # attempts to use FU when none available
system.switch_cpus0.iq.fu_full::SimdFloatCmp            0      0.00%     74.71% # attempts to use FU when none available
system.switch_cpus0.iq.fu_full::SimdFloatCvt            0      0.00%     74.71% # attempts to use FU when none available
system.switch_cpus0.iq.fu_full::SimdFloatDiv            0      0.00%     74.71% # attempts to use FU when none available
system.switch_cpus0.iq.fu_full::SimdFloatMisc            0      0.00%     74.71% # attempts to use FU when none available
system.switch_cpus0.iq.fu_full::SimdFloatMult            0      0.00%     74.71% # attempts to use FU when none available
system.switch_cpus0.iq.fu_full::SimdFloatMultAcc            0      0.00%     74.71% # attempts to use FU when none available
system.switch_cpus0.iq.fu_full::SimdFloatSqrt            0      0.00%     74.71% # attempts to use FU when none available
system.switch_cpus0.iq.fu_full::MemRead        157972     12.09%     86.80% # attempts to use FU when none available
system.switch_cpus0.iq.fu_full::MemWrite       172522     13.20%    100.00% # attempts to use FU when none available
system.switch_cpus0.iq.fu_full::IprAccess            0      0.00%    100.00% # attempts to use FU when none available
system.switch_cpus0.iq.fu_full::InstPrefetch            0      0.00%    100.00% # attempts to use FU when none available
system.switch_cpus0.iq.FU_type_0::No_OpClass            0      0.00%      0.00% # Type of FU issued
system.switch_cpus0.iq.FU_type_0::IntAlu    114957071     82.59%     82.59% # Type of FU issued
system.switch_cpus0.iq.FU_type_0::IntMult      2012672      1.45%     84.04% # Type of FU issued
system.switch_cpus0.iq.FU_type_0::IntDiv            0      0.00%     84.04% # Type of FU issued
system.switch_cpus0.iq.FU_type_0::FloatAdd            0      0.00%     84.04% # Type of FU issued
system.switch_cpus0.iq.FU_type_0::FloatCmp            0      0.00%     84.04% # Type of FU issued
system.switch_cpus0.iq.FU_type_0::FloatCvt            0      0.00%     84.04% # Type of FU issued
system.switch_cpus0.iq.FU_type_0::FloatMult            0      0.00%     84.04% # Type of FU issued
system.switch_cpus0.iq.FU_type_0::FloatDiv            0      0.00%     84.04% # Type of FU issued
system.switch_cpus0.iq.FU_type_0::FloatSqrt            0      0.00%     84.04% # Type of FU issued
system.switch_cpus0.iq.FU_type_0::SimdAdd            0      0.00%     84.04% # Type of FU issued
system.switch_cpus0.iq.FU_type_0::SimdAddAcc            0      0.00%     84.04% # Type of FU issued
system.switch_cpus0.iq.FU_type_0::SimdAlu            0      0.00%     84.04% # Type of FU issued
system.switch_cpus0.iq.FU_type_0::SimdCmp            0      0.00%     84.04% # Type of FU issued
system.switch_cpus0.iq.FU_type_0::SimdCvt            0      0.00%     84.04% # Type of FU issued
system.switch_cpus0.iq.FU_type_0::SimdMisc            0      0.00%     84.04% # Type of FU issued
system.switch_cpus0.iq.FU_type_0::SimdMult            0      0.00%     84.04% # Type of FU issued
system.switch_cpus0.iq.FU_type_0::SimdMultAcc            0      0.00%     84.04% # Type of FU issued
system.switch_cpus0.iq.FU_type_0::SimdShift            0      0.00%     84.04% # Type of FU issued
system.switch_cpus0.iq.FU_type_0::SimdShiftAcc            0      0.00%     84.04% # Type of FU issued
system.switch_cpus0.iq.FU_type_0::SimdSqrt            0      0.00%     84.04% # Type of FU issued
system.switch_cpus0.iq.FU_type_0::SimdFloatAdd            0      0.00%     84.04% # Type of FU issued
system.switch_cpus0.iq.FU_type_0::SimdFloatAlu            0      0.00%     84.04% # Type of FU issued
system.switch_cpus0.iq.FU_type_0::SimdFloatCmp            0      0.00%     84.04% # Type of FU issued
system.switch_cpus0.iq.FU_type_0::SimdFloatCvt            0      0.00%     84.04% # Type of FU issued
system.switch_cpus0.iq.FU_type_0::SimdFloatDiv            0      0.00%     84.04% # Type of FU issued
system.switch_cpus0.iq.FU_type_0::SimdFloatMisc        16022      0.01%     84.05% # Type of FU issued
system.switch_cpus0.iq.FU_type_0::SimdFloatMult            0      0.00%     84.05% # Type of FU issued
system.switch_cpus0.iq.FU_type_0::SimdFloatMultAcc            0      0.00%     84.05% # Type of FU issued
system.switch_cpus0.iq.FU_type_0::SimdFloatSqrt            0      0.00%     84.05% # Type of FU issued
system.switch_cpus0.iq.FU_type_0::MemRead     14358896     10.32%     94.36% # Type of FU issued
system.switch_cpus0.iq.FU_type_0::MemWrite      7845751      5.64%    100.00% # Type of FU issued
system.switch_cpus0.iq.FU_type_0::IprAccess            0      0.00%    100.00% # Type of FU issued
system.switch_cpus0.iq.FU_type_0::InstPrefetch            0      0.00%    100.00% # Type of FU issued
system.switch_cpus0.iq.FU_type_0::total     139190412                       # Type of FU issued
system.switch_cpus0.iq.rate                  0.981128                       # Inst issue rate
system.switch_cpus0.iq.fu_busy_cnt            1306599                       # FU busy when requested
system.switch_cpus0.iq.fu_busy_rate          0.009387                       # FU busy rate (busy events/executed inst)
system.switch_cpus0.iq.int_inst_queue_reads    420058291                       # Number of integer instruction queue reads
system.switch_cpus0.iq.int_inst_queue_writes    174355637                       # Number of integer instruction queue writes
system.switch_cpus0.iq.int_inst_queue_wakeup_accesses    135075518                       # Number of integer instruction queue wakeup accesses
system.switch_cpus0.iq.fp_inst_queue_reads            0                       # Number of floating instruction queue reads
system.switch_cpus0.iq.fp_inst_queue_writes            0                       # Number of floating instruction queue writes
system.switch_cpus0.iq.fp_inst_queue_wakeup_accesses            0                       # Number of floating instruction queue wakeup accesses
system.switch_cpus0.iq.int_alu_accesses     140497011                       # Number of integer alu accesses
system.switch_cpus0.iq.fp_alu_accesses              0                       # Number of floating point alu accesses
system.switch_cpus0.iew.lsq.thread0.forwLoads       201263                       # Number of loads that had data forwarded from stores
system.switch_cpus0.iew.lsq.thread0.invAddrLoads            0                       # Number of loads ignored due to an invalid address
system.switch_cpus0.iew.lsq.thread0.squashedLoads      2972897                       # Number of loads squashed
system.switch_cpus0.iew.lsq.thread0.ignoredResponses         1255                       # Number of memory responses ignored because the instruction is squashed
system.switch_cpus0.iew.lsq.thread0.memOrderViolation          670                       # Number of memory ordering violations
system.switch_cpus0.iew.lsq.thread0.squashedStores       160896                       # Number of stores squashed
system.switch_cpus0.iew.lsq.thread0.invAddrSwpfs            0                       # Number of software prefetches ignored due to an invalid address
system.switch_cpus0.iew.lsq.thread0.blockedLoads            0                       # Number of blocked loads due to partial load-store forwarding
system.switch_cpus0.iew.lsq.thread0.rescheduledLoads          594                       # Number of loads that were rescheduled
system.switch_cpus0.iew.lsq.thread0.cacheBlocked            0                       # Number of times an access to memory failed due to the cache being blocked
system.switch_cpus0.iew.iewIdleCycles               0                       # Number of cycles IEW is idle
system.switch_cpus0.iew.iewSquashCycles       4289661                       # Number of cycles IEW is squashing
system.switch_cpus0.iew.iewBlockCycles        2665700                       # Number of cycles IEW is blocking
system.switch_cpus0.iew.iewUnblockCycles       246970                       # Number of cycles IEW is unblocking
system.switch_cpus0.iew.iewDispatchedInsts    149156734                       # Number of instructions dispatched to IQ
system.switch_cpus0.iew.iewDispSquashedInsts      1163875                       # Number of squashed instructions skipped by dispatch
system.switch_cpus0.iew.iewDispLoadInsts     15185026                       # Number of dispatched load instructions
system.switch_cpus0.iew.iewDispStoreInsts      7902566                       # Number of dispatched store instructions
system.switch_cpus0.iew.iewDispNonSpecInsts        17722                       # Number of dispatched non-speculative instructions
system.switch_cpus0.iew.iewIQFullEvents        196819                       # Number of times the IQ has become full, causing a stall
system.switch_cpus0.iew.iewLSQFullEvents        13011                       # Number of times the LSQ has become full, causing a stall
system.switch_cpus0.iew.memOrderViolationEvents          670                       # Number of memory order violations
system.switch_cpus0.iew.predictedTakenIncorrect      1148825                       # Number of branches that were predicted taken incorrectly
system.switch_cpus0.iew.predictedNotTakenIncorrect      1084887                       # Number of branches that were predicted not taken incorrectly
system.switch_cpus0.iew.branchMispredicts      2233712                       # Number of branch mispredicts detected at execute
system.switch_cpus0.iew.iewExecutedInsts    136814860                       # Number of executed instructions
system.switch_cpus0.iew.iewExecLoadInsts     14109269                       # Number of load instructions executed
system.switch_cpus0.iew.iewExecSquashedInsts      2375552                       # Number of squashed instructions skipped in execute
system.switch_cpus0.iew.exec_swp                    0                       # number of swp insts executed
system.switch_cpus0.iew.exec_nop                    0                       # number of nop insts executed
system.switch_cpus0.iew.exec_refs            21953513                       # number of memory reference insts executed
system.switch_cpus0.iew.exec_branches        19289747                       # Number of branches executed
system.switch_cpus0.iew.exec_stores           7844244                       # Number of stores executed
system.switch_cpus0.iew.exec_rate            0.964383                       # Inst execution rate
system.switch_cpus0.iew.wb_sent             135082342                       # cumulative count of insts sent to commit
system.switch_cpus0.iew.wb_count            135075518                       # cumulative count of insts written-back
system.switch_cpus0.iew.wb_producers         81516091                       # num instructions producing a value
system.switch_cpus0.iew.wb_consumers        221138923                       # num instructions consuming a value
system.switch_cpus0.iew.wb_penalized                0                       # number of instrctions required to write to 'other' IQ
system.switch_cpus0.iew.wb_rate              0.952123                       # insts written-back per cycle
system.switch_cpus0.iew.wb_fanout            0.368619                       # average fanout of values written-back
system.switch_cpus0.iew.wb_penalized_rate            0                       # fraction of instructions written-back that wrote to 'other' IQ
system.switch_cpus0.commit.commitCommittedInsts    100000000                       # The number of committed instructions
system.switch_cpus0.commit.commitCommittedOps    122421916                       # The number of committed instructions
system.switch_cpus0.commit.commitSquashedInsts     26742179                       # The number of squashed insts skipped by commit
system.switch_cpus0.commit.commitNonSpecStalls        32044                       # The number of times commit has been forced to stall to communicate backwards
system.switch_cpus0.commit.branchMispredicts      1956870                       # The number of times a branch was mispredicted
system.switch_cpus0.commit.committed_per_cycle::samples    135973260                       # Number of insts commited each cycle
system.switch_cpus0.commit.committed_per_cycle::mean     0.900338                       # Number of insts commited each cycle
system.switch_cpus0.commit.committed_per_cycle::stdev     1.715113                       # Number of insts commited each cycle
system.switch_cpus0.commit.committed_per_cycle::underflows            0      0.00%      0.00% # Number of insts commited each cycle
system.switch_cpus0.commit.committed_per_cycle::0     86879059     63.89%     63.89% # Number of insts commited each cycle
system.switch_cpus0.commit.committed_per_cycle::1     22500806     16.55%     80.44% # Number of insts commited each cycle
system.switch_cpus0.commit.committed_per_cycle::2     10808198      7.95%     88.39% # Number of insts commited each cycle
system.switch_cpus0.commit.committed_per_cycle::3      4817531      3.54%     91.93% # Number of insts commited each cycle
system.switch_cpus0.commit.committed_per_cycle::4      3764230      2.77%     94.70% # Number of insts commited each cycle
system.switch_cpus0.commit.committed_per_cycle::5      1537358      1.13%     95.83% # Number of insts commited each cycle
system.switch_cpus0.commit.committed_per_cycle::6      1561490      1.15%     96.98% # Number of insts commited each cycle
system.switch_cpus0.commit.committed_per_cycle::7      1097233      0.81%     97.79% # Number of insts commited each cycle
system.switch_cpus0.commit.committed_per_cycle::8      3007355      2.21%    100.00% # Number of insts commited each cycle
system.switch_cpus0.commit.committed_per_cycle::overflows            0      0.00%    100.00% # Number of insts commited each cycle
system.switch_cpus0.commit.committed_per_cycle::min_value            0                       # Number of insts commited each cycle
system.switch_cpus0.commit.committed_per_cycle::max_value            8                       # Number of insts commited each cycle
system.switch_cpus0.commit.committed_per_cycle::total    135973260                       # Number of insts commited each cycle
system.switch_cpus0.commit.committedInsts    100000000                       # Number of instructions committed
system.switch_cpus0.commit.committedOps     122421916                       # Number of ops (including micro ops) committed
system.switch_cpus0.commit.swp_count                0                       # Number of s/w prefetches committed
system.switch_cpus0.commit.refs              19953796                       # Number of memory references committed
system.switch_cpus0.commit.loads             12212126                       # Number of loads committed
system.switch_cpus0.commit.membars              16022                       # Number of memory barriers committed
system.switch_cpus0.commit.branches          17573934                       # Number of branches committed
system.switch_cpus0.commit.fp_insts                 0                       # Number of committed floating point instructions.
system.switch_cpus0.commit.int_insts        110146122                       # Number of committed integer instructions.
system.switch_cpus0.commit.function_calls      2413416                       # Number of function calls committed.
system.switch_cpus0.commit.bw_lim_events      3007355                       # number cycles where commit BW limit reached
system.switch_cpus0.commit.bw_limited               0                       # number of insts not committed due to BW limits
system.switch_cpus0.rob.rob_reads           282130000                       # The number of ROB reads
system.switch_cpus0.rob.rob_writes          302618162                       # The number of ROB writes
system.switch_cpus0.timesIdled                  54150                       # Number of times that the entire CPU went into an idle state and unscheduled itself
system.switch_cpus0.idleCycles                1604797                       # Total number of cycles that the CPU has spent unscheduled due to idling
system.switch_cpus0.committedInsts          100000000                       # Number of Instructions Simulated
system.switch_cpus0.committedOps            122421916                       # Number of Ops (including micro ops) Simulated
system.switch_cpus0.committedInsts_total    100000000                       # Number of Instructions Simulated
system.switch_cpus0.cpi                      1.418677                       # CPI: Cycles Per Instruction
system.switch_cpus0.cpi_total                1.418677                       # CPI: Total CPI of All Threads
system.switch_cpus0.ipc                      0.704882                       # IPC: Instructions Per Cycle
system.switch_cpus0.ipc_total                0.704882                       # IPC: Total IPC of All Threads
system.switch_cpus0.int_regfile_reads       618259947                       # number of integer regfile reads
system.switch_cpus0.int_regfile_writes      186387882                       # number of integer regfile writes
system.switch_cpus0.misc_regfile_reads      145805900                       # number of misc regfile reads
system.switch_cpus0.misc_regfile_writes         32044                       # number of misc regfile writes
system.switch_cpus1.dtb.inst_hits                   0                       # ITB inst hits
system.switch_cpus1.dtb.inst_misses                 0                       # ITB inst misses
system.switch_cpus1.dtb.read_hits                   0                       # DTB read hits
system.switch_cpus1.dtb.read_misses                 0                       # DTB read misses
system.switch_cpus1.dtb.write_hits                  0                       # DTB write hits
system.switch_cpus1.dtb.write_misses                0                       # DTB write misses
system.switch_cpus1.dtb.flush_tlb                   0                       # Number of times complete TLB was flushed
system.switch_cpus1.dtb.flush_tlb_mva               0                       # Number of times TLB was flushed by MVA
system.switch_cpus1.dtb.flush_tlb_mva_asid            0                       # Number of times TLB was flushed by MVA & ASID
system.switch_cpus1.dtb.flush_tlb_asid              0                       # Number of times TLB was flushed by ASID
system.switch_cpus1.dtb.flush_entries               0                       # Number of entries that have been flushed from TLB
system.switch_cpus1.dtb.align_faults                0                       # Number of TLB faults due to alignment restrictions
system.switch_cpus1.dtb.prefetch_faults             0                       # Number of TLB faults due to prefetch
system.switch_cpus1.dtb.domain_faults               0                       # Number of TLB faults due to domain restrictions
system.switch_cpus1.dtb.perms_faults                0                       # Number of TLB faults due to permissions restrictions
system.switch_cpus1.dtb.read_accesses               0                       # DTB read accesses
system.switch_cpus1.dtb.write_accesses              0                       # DTB write accesses
system.switch_cpus1.dtb.inst_accesses               0                       # ITB inst accesses
system.switch_cpus1.dtb.hits                        0                       # DTB hits
system.switch_cpus1.dtb.misses                      0                       # DTB misses
system.switch_cpus1.dtb.accesses                    0                       # DTB accesses
system.switch_cpus1.itb.inst_hits                   0                       # ITB inst hits
system.switch_cpus1.itb.inst_misses                 0                       # ITB inst misses
system.switch_cpus1.itb.read_hits                   0                       # DTB read hits
system.switch_cpus1.itb.read_misses                 0                       # DTB read misses
system.switch_cpus1.itb.write_hits                  0                       # DTB write hits
system.switch_cpus1.itb.write_misses                0                       # DTB write misses
system.switch_cpus1.itb.flush_tlb                   0                       # Number of times complete TLB was flushed
system.switch_cpus1.itb.flush_tlb_mva               0                       # Number of times TLB was flushed by MVA
system.switch_cpus1.itb.flush_tlb_mva_asid            0                       # Number of times TLB was flushed by MVA & ASID
system.switch_cpus1.itb.flush_tlb_asid              0                       # Number of times TLB was flushed by ASID
system.switch_cpus1.itb.flush_entries               0                       # Number of entries that have been flushed from TLB
system.switch_cpus1.itb.align_faults                0                       # Number of TLB faults due to alignment restrictions
system.switch_cpus1.itb.prefetch_faults             0                       # Number of TLB faults due to prefetch
system.switch_cpus1.itb.domain_faults               0                       # Number of TLB faults due to domain restrictions
system.switch_cpus1.itb.perms_faults                0                       # Number of TLB faults due to permissions restrictions
system.switch_cpus1.itb.read_accesses               0                       # DTB read accesses
system.switch_cpus1.itb.write_accesses              0                       # DTB write accesses
system.switch_cpus1.itb.inst_accesses               0                       # ITB inst accesses
system.switch_cpus1.itb.hits                        0                       # DTB hits
system.switch_cpus1.itb.misses                      0                       # DTB misses
system.switch_cpus1.itb.accesses                    0                       # DTB accesses
system.cpu1.workload.num_syscalls                   0                       # Number of system calls
system.switch_cpus1.numCycles               141867697                       # number of cpu cycles simulated
system.switch_cpus1.numWorkItemsStarted             0                       # number of work items this cpu started
system.switch_cpus1.numWorkItemsCompleted            0                       # number of work items this cpu completed
system.switch_cpus1.BPredUnit.lookups        22206485                       # Number of BP lookups
system.switch_cpus1.BPredUnit.condPredicted     18308436                       # Number of conditional branches predicted
system.switch_cpus1.BPredUnit.condIncorrect      1984327                       # Number of conditional branches incorrect
system.switch_cpus1.BPredUnit.BTBLookups      9166215                       # Number of BTB lookups
system.switch_cpus1.BPredUnit.BTBHits         8524380                       # Number of BTB hits
system.switch_cpus1.BPredUnit.BTBCorrect            0                       # Number of correct BTB predictions (this stat may not work properly.
system.switch_cpus1.BPredUnit.usedRAS         2328995                       # Number of times the RAS was used to get a target.
system.switch_cpus1.BPredUnit.RASInCorrect        87661                       # Number of incorrect RAS predictions.
system.switch_cpus1.fetch.icacheStallCycles    108200965                       # Number of cycles fetch is stalled on an Icache miss
system.switch_cpus1.fetch.Insts             121955096                       # Number of instructions fetch has processed
system.switch_cpus1.fetch.Branches           22206485                       # Number of branches that fetch encountered
system.switch_cpus1.fetch.predictedBranches     10853375                       # Number of branches that fetch has predicted taken
system.switch_cpus1.fetch.Cycles             25500426                       # Number of cycles fetch has run and was not squashing or blocked
system.switch_cpus1.fetch.SquashCycles        5868153                       # Number of cycles fetch has spent squashing
system.switch_cpus1.fetch.BlockedCycles       2687019                       # Number of cycles fetch has spent blocked
system.switch_cpus1.fetch.CacheLines         12554379                       # Number of cache lines fetched
system.switch_cpus1.fetch.IcacheSquashes      1642158                       # Number of outstanding Icache misses that were squashed
system.switch_cpus1.fetch.rateDist::samples    140239256                       # Number of instructions fetched each cycle (Total)
system.switch_cpus1.fetch.rateDist::mean     1.067854                       # Number of instructions fetched each cycle (Total)
system.switch_cpus1.fetch.rateDist::stdev     2.487709                       # Number of instructions fetched each cycle (Total)
system.switch_cpus1.fetch.rateDist::underflows            0      0.00%      0.00% # Number of instructions fetched each cycle (Total)
system.switch_cpus1.fetch.rateDist::0       114738830     81.82%     81.82% # Number of instructions fetched each cycle (Total)
system.switch_cpus1.fetch.rateDist::1         1331363      0.95%     82.77% # Number of instructions fetched each cycle (Total)
system.switch_cpus1.fetch.rateDist::2         1884474      1.34%     84.11% # Number of instructions fetched each cycle (Total)
system.switch_cpus1.fetch.rateDist::3         2461142      1.75%     85.86% # Number of instructions fetched each cycle (Total)
system.switch_cpus1.fetch.rateDist::4         2762786      1.97%     87.83% # Number of instructions fetched each cycle (Total)
system.switch_cpus1.fetch.rateDist::5         2052316      1.46%     89.30% # Number of instructions fetched each cycle (Total)
system.switch_cpus1.fetch.rateDist::6         1186040      0.85%     90.14% # Number of instructions fetched each cycle (Total)
system.switch_cpus1.fetch.rateDist::7         1736156      1.24%     91.38% # Number of instructions fetched each cycle (Total)
system.switch_cpus1.fetch.rateDist::8        12086149      8.62%    100.00% # Number of instructions fetched each cycle (Total)
system.switch_cpus1.fetch.rateDist::overflows            0      0.00%    100.00% # Number of instructions fetched each cycle (Total)
system.switch_cpus1.fetch.rateDist::min_value            0                       # Number of instructions fetched each cycle (Total)
system.switch_cpus1.fetch.rateDist::max_value            8                       # Number of instructions fetched each cycle (Total)
system.switch_cpus1.fetch.rateDist::total    140239256                       # Number of instructions fetched each cycle (Total)
system.switch_cpus1.fetch.branchRate         0.156530                       # Number of branch fetches per cycle
system.switch_cpus1.fetch.rate               0.859640                       # Number of inst fetches per cycle
system.switch_cpus1.decode.IdleCycles       107010267                       # Number of cycles decode is idle
system.switch_cpus1.decode.BlockedCycles      4277152                       # Number of cycles decode is blocked
system.switch_cpus1.decode.RunCycles         25042638                       # Number of cycles decode is running
system.switch_cpus1.decode.UnblockCycles        58584                       # Number of cycles decode is unblocking
system.switch_cpus1.decode.SquashCycles       3850614                       # Number of cycles decode is squashing
system.switch_cpus1.decode.BranchResolved      3544851                       # Number of times decode resolved a branch
system.switch_cpus1.decode.BranchMispred          238                       # Number of times decode detected a branch misprediction
system.switch_cpus1.decode.DecodedInsts     147161093                       # Number of instructions handled by decode
system.switch_cpus1.decode.SquashedInsts         1306                       # Number of squashed instructions handled by decode
system.switch_cpus1.rename.SquashCycles       3850614                       # Number of cycles rename is squashing
system.switch_cpus1.rename.IdleCycles       107754627                       # Number of cycles rename is idle
system.switch_cpus1.rename.BlockCycles        1048329                       # Number of cycles rename is blocking
system.switch_cpus1.rename.serializeStallCycles      1901164                       # count of cycles rename stalled for serializing inst
system.switch_cpus1.rename.RunCycles         24359703                       # Number of cycles rename is running
system.switch_cpus1.rename.UnblockCycles      1324813                       # Number of cycles rename is unblocking
system.switch_cpus1.rename.RenamedInsts     146178179                       # Number of instructions processed by rename
system.switch_cpus1.rename.ROBFullEvents          246                       # Number of times rename has blocked due to ROB full
system.switch_cpus1.rename.IQFullEvents        266783                       # Number of times rename has blocked due to IQ full
system.switch_cpus1.rename.LSQFullEvents       548143                       # Number of times rename has blocked due to LSQ full
system.switch_cpus1.rename.FullRegisterEvents          136                       # Number of times there has been no free registers
system.switch_cpus1.rename.RenamedOperands    203848887                       # Number of destination operands rename has renamed
system.switch_cpus1.rename.RenameLookups    682921639                       # Number of register rename lookups that rename has made
system.switch_cpus1.rename.int_rename_lookups    682921639                       # Number of integer rename lookups
system.switch_cpus1.rename.CommittedMaps    166542553                       # Number of HB maps that are committed
system.switch_cpus1.rename.UndoneMaps        37306198                       # Number of HB maps that are undone due to squashing
system.switch_cpus1.rename.serializingInsts        38613                       # count of serializing insts renamed
system.switch_cpus1.rename.tempSerializingInsts        22355                       # count of temporary serializing insts renamed
system.switch_cpus1.rename.skidInsts          4003666                       # count of insts added to the skid buffer
system.switch_cpus1.memDep0.insertedLoads     13888893                       # Number of loads inserted to the mem dependence unit.
system.switch_cpus1.memDep0.insertedStores      7215175                       # Number of stores inserted to the mem dependence unit.
system.switch_cpus1.memDep0.conflictingLoads       119243                       # Number of conflicting loads.
system.switch_cpus1.memDep0.conflictingStores      1573304                       # Number of conflicting stores.
system.switch_cpus1.iq.iqInstsAdded         142045424                       # Number of instructions added to the IQ (excludes non-spec)
system.switch_cpus1.iq.iqNonSpecInstsAdded        38575                       # Number of non-speculative instructions added to the IQ
system.switch_cpus1.iq.iqInstsIssued        132932640                       # Number of instructions issued
system.switch_cpus1.iq.iqSquashedInstsIssued        26053                       # Number of squashed instructions issued
system.switch_cpus1.iq.iqSquashedInstsExamined     20429448                       # Number of squashed instructions iterated over during squash; mainly for profiling
system.switch_cpus1.iq.iqSquashedOperandsExamined     48211234                       # Number of squashed operands that are examined and possibly removed from graph
system.switch_cpus1.iq.iqSquashedNonSpecRemoved         6059                       # Number of squashed non-spec instructions that were removed
system.switch_cpus1.iq.issued_per_cycle::samples    140239256                       # Number of insts issued each cycle
system.switch_cpus1.iq.issued_per_cycle::mean     0.947899                       # Number of insts issued each cycle
system.switch_cpus1.iq.issued_per_cycle::stdev     1.506638                       # Number of insts issued each cycle
system.switch_cpus1.iq.issued_per_cycle::underflows            0      0.00%      0.00% # Number of insts issued each cycle
system.switch_cpus1.iq.issued_per_cycle::0     83977331     59.88%     59.88% # Number of insts issued each cycle
system.switch_cpus1.iq.issued_per_cycle::1     22665606     16.16%     76.04% # Number of insts issued each cycle
system.switch_cpus1.iq.issued_per_cycle::2     12559788      8.96%     85.00% # Number of insts issued each cycle
system.switch_cpus1.iq.issued_per_cycle::3      8090560      5.77%     90.77% # Number of insts issued each cycle
system.switch_cpus1.iq.issued_per_cycle::4      7425596      5.29%     96.06% # Number of insts issued each cycle
system.switch_cpus1.iq.issued_per_cycle::5      2959834      2.11%     98.17% # Number of insts issued each cycle
system.switch_cpus1.iq.issued_per_cycle::6      1797941      1.28%     99.46% # Number of insts issued each cycle
system.switch_cpus1.iq.issued_per_cycle::7       514222      0.37%     99.82% # Number of insts issued each cycle
system.switch_cpus1.iq.issued_per_cycle::8       248378      0.18%    100.00% # Number of insts issued each cycle
system.switch_cpus1.iq.issued_per_cycle::overflows            0      0.00%    100.00% # Number of insts issued each cycle
system.switch_cpus1.iq.issued_per_cycle::min_value            0                       # Number of insts issued each cycle
system.switch_cpus1.iq.issued_per_cycle::max_value            8                       # Number of insts issued each cycle
system.switch_cpus1.iq.issued_per_cycle::total    140239256                       # Number of insts issued each cycle
system.switch_cpus1.iq.fu_full::No_OpClass            0      0.00%      0.00% # attempts to use FU when none available
system.switch_cpus1.iq.fu_full::IntAlu          63628     22.67%     22.67% # attempts to use FU when none available
system.switch_cpus1.iq.fu_full::IntMult             1      0.00%     22.67% # attempts to use FU when none available
system.switch_cpus1.iq.fu_full::IntDiv              0      0.00%     22.67% # attempts to use FU when none available
system.switch_cpus1.iq.fu_full::FloatAdd            0      0.00%     22.67% # attempts to use FU when none available
system.switch_cpus1.iq.fu_full::FloatCmp            0      0.00%     22.67% # attempts to use FU when none available
system.switch_cpus1.iq.fu_full::FloatCvt            0      0.00%     22.67% # attempts to use FU when none available
system.switch_cpus1.iq.fu_full::FloatMult            0      0.00%     22.67% # attempts to use FU when none available
system.switch_cpus1.iq.fu_full::FloatDiv            0      0.00%     22.67% # attempts to use FU when none available
system.switch_cpus1.iq.fu_full::FloatSqrt            0      0.00%     22.67% # attempts to use FU when none available
system.switch_cpus1.iq.fu_full::SimdAdd             0      0.00%     22.67% # attempts to use FU when none available
system.switch_cpus1.iq.fu_full::SimdAddAcc            0      0.00%     22.67% # attempts to use FU when none available
system.switch_cpus1.iq.fu_full::SimdAlu             0      0.00%     22.67% # attempts to use FU when none available
system.switch_cpus1.iq.fu_full::SimdCmp             0      0.00%     22.67% # attempts to use FU when none available
system.switch_cpus1.iq.fu_full::SimdCvt             0      0.00%     22.67% # attempts to use FU when none available
system.switch_cpus1.iq.fu_full::SimdMisc            0      0.00%     22.67% # attempts to use FU when none available
system.switch_cpus1.iq.fu_full::SimdMult            0      0.00%     22.67% # attempts to use FU when none available
system.switch_cpus1.iq.fu_full::SimdMultAcc            0      0.00%     22.67% # attempts to use FU when none available
system.switch_cpus1.iq.fu_full::SimdShift            0      0.00%     22.67% # attempts to use FU when none available
system.switch_cpus1.iq.fu_full::SimdShiftAcc            0      0.00%     22.67% # attempts to use FU when none available
system.switch_cpus1.iq.fu_full::SimdSqrt            0      0.00%     22.67% # attempts to use FU when none available
system.switch_cpus1.iq.fu_full::SimdFloatAdd            0      0.00%     22.67% # attempts to use FU when none available
system.switch_cpus1.iq.fu_full::SimdFloatAlu            0      0.00%     22.67% # attempts to use FU when none available
system.switch_cpus1.iq.fu_full::SimdFloatCmp            0      0.00%     22.67% # attempts to use FU when none available
system.switch_cpus1.iq.fu_full::SimdFloatCvt            0      0.00%     22.67% # attempts to use FU when none available
system.switch_cpus1.iq.fu_full::SimdFloatDiv            0      0.00%     22.67% # attempts to use FU when none available
system.switch_cpus1.iq.fu_full::SimdFloatMisc            0      0.00%     22.67% # attempts to use FU when none available
system.switch_cpus1.iq.fu_full::SimdFloatMult            0      0.00%     22.67% # attempts to use FU when none available
system.switch_cpus1.iq.fu_full::SimdFloatMultAcc            0      0.00%     22.67% # attempts to use FU when none available
system.switch_cpus1.iq.fu_full::SimdFloatSqrt            0      0.00%     22.67% # attempts to use FU when none available
system.switch_cpus1.iq.fu_full::MemRead         93752     33.41%     56.08% # attempts to use FU when none available
system.switch_cpus1.iq.fu_full::MemWrite       123260     43.92%    100.00% # attempts to use FU when none available
system.switch_cpus1.iq.fu_full::IprAccess            0      0.00%    100.00% # attempts to use FU when none available
system.switch_cpus1.iq.fu_full::InstPrefetch            0      0.00%    100.00% # attempts to use FU when none available
system.switch_cpus1.iq.FU_type_0::No_OpClass            0      0.00%      0.00% # Type of FU issued
system.switch_cpus1.iq.FU_type_0::IntAlu    111606207     83.96%     83.96% # Type of FU issued
system.switch_cpus1.iq.FU_type_0::IntMult      2027419      1.53%     85.48% # Type of FU issued
system.switch_cpus1.iq.FU_type_0::IntDiv            0      0.00%     85.48% # Type of FU issued
system.switch_cpus1.iq.FU_type_0::FloatAdd            0      0.00%     85.48% # Type of FU issued
system.switch_cpus1.iq.FU_type_0::FloatCmp            0      0.00%     85.48% # Type of FU issued
system.switch_cpus1.iq.FU_type_0::FloatCvt            0      0.00%     85.48% # Type of FU issued
system.switch_cpus1.iq.FU_type_0::FloatMult            0      0.00%     85.48% # Type of FU issued
system.switch_cpus1.iq.FU_type_0::FloatDiv            0      0.00%     85.48% # Type of FU issued
system.switch_cpus1.iq.FU_type_0::FloatSqrt            0      0.00%     85.48% # Type of FU issued
system.switch_cpus1.iq.FU_type_0::SimdAdd            0      0.00%     85.48% # Type of FU issued
system.switch_cpus1.iq.FU_type_0::SimdAddAcc            0      0.00%     85.48% # Type of FU issued
system.switch_cpus1.iq.FU_type_0::SimdAlu            0      0.00%     85.48% # Type of FU issued
system.switch_cpus1.iq.FU_type_0::SimdCmp            0      0.00%     85.48% # Type of FU issued
system.switch_cpus1.iq.FU_type_0::SimdCvt            0      0.00%     85.48% # Type of FU issued
system.switch_cpus1.iq.FU_type_0::SimdMisc            0      0.00%     85.48% # Type of FU issued
system.switch_cpus1.iq.FU_type_0::SimdMult            0      0.00%     85.48% # Type of FU issued
system.switch_cpus1.iq.FU_type_0::SimdMultAcc            0      0.00%     85.48% # Type of FU issued
system.switch_cpus1.iq.FU_type_0::SimdShift            0      0.00%     85.48% # Type of FU issued
system.switch_cpus1.iq.FU_type_0::SimdShiftAcc            0      0.00%     85.48% # Type of FU issued
system.switch_cpus1.iq.FU_type_0::SimdSqrt            0      0.00%     85.48% # Type of FU issued
system.switch_cpus1.iq.FU_type_0::SimdFloatAdd            0      0.00%     85.48% # Type of FU issued
system.switch_cpus1.iq.FU_type_0::SimdFloatAlu            0      0.00%     85.48% # Type of FU issued
system.switch_cpus1.iq.FU_type_0::SimdFloatCmp            0      0.00%     85.48% # Type of FU issued
system.switch_cpus1.iq.FU_type_0::SimdFloatCvt            0      0.00%     85.48% # Type of FU issued
system.switch_cpus1.iq.FU_type_0::SimdFloatDiv            0      0.00%     85.48% # Type of FU issued
system.switch_cpus1.iq.FU_type_0::SimdFloatMisc        16258      0.01%     85.49% # Type of FU issued
system.switch_cpus1.iq.FU_type_0::SimdFloatMult            0      0.00%     85.49% # Type of FU issued
system.switch_cpus1.iq.FU_type_0::SimdFloatMultAcc            0      0.00%     85.49% # Type of FU issued
system.switch_cpus1.iq.FU_type_0::SimdFloatSqrt            0      0.00%     85.49% # Type of FU issued
system.switch_cpus1.iq.FU_type_0::MemRead     12122667      9.12%     94.61% # Type of FU issued
system.switch_cpus1.iq.FU_type_0::MemWrite      7160089      5.39%    100.00% # Type of FU issued
system.switch_cpus1.iq.FU_type_0::IprAccess            0      0.00%    100.00% # Type of FU issued
system.switch_cpus1.iq.FU_type_0::InstPrefetch            0      0.00%    100.00% # Type of FU issued
system.switch_cpus1.iq.FU_type_0::total     132932640                       # Type of FU issued
system.switch_cpus1.iq.rate                  0.937018                       # Inst issue rate
system.switch_cpus1.iq.fu_busy_cnt             280641                       # FU busy when requested
system.switch_cpus1.iq.fu_busy_rate          0.002111                       # FU busy rate (busy events/executed inst)
system.switch_cpus1.iq.int_inst_queue_reads    406411230                       # Number of integer instruction queue reads
system.switch_cpus1.iq.int_inst_queue_writes    162513768                       # Number of integer instruction queue writes
system.switch_cpus1.iq.int_inst_queue_wakeup_accesses    130392174                       # Number of integer instruction queue wakeup accesses
system.switch_cpus1.iq.fp_inst_queue_reads            0                       # Number of floating instruction queue reads
system.switch_cpus1.iq.fp_inst_queue_writes            0                       # Number of floating instruction queue writes
system.switch_cpus1.iq.fp_inst_queue_wakeup_accesses            0                       # Number of floating instruction queue wakeup accesses
system.switch_cpus1.iq.int_alu_accesses     133213281                       # Number of integer alu accesses
system.switch_cpus1.iq.fp_alu_accesses              0                       # Number of floating point alu accesses
system.switch_cpus1.iew.lsq.thread0.forwLoads       323205                       # Number of loads that had data forwarded from stores
system.switch_cpus1.iew.lsq.thread0.invAddrLoads            0                       # Number of loads ignored due to an invalid address
system.switch_cpus1.iew.lsq.thread0.squashedLoads      2898793                       # Number of loads squashed
system.switch_cpus1.iew.lsq.thread0.ignoredResponses          141                       # Number of memory responses ignored because the instruction is squashed
system.switch_cpus1.iew.lsq.thread0.memOrderViolation          321                       # Number of memory ordering violations
system.switch_cpus1.iew.lsq.thread0.squashedStores       170872                       # Number of stores squashed
system.switch_cpus1.iew.lsq.thread0.invAddrSwpfs            0                       # Number of software prefetches ignored due to an invalid address
system.switch_cpus1.iew.lsq.thread0.blockedLoads            0                       # Number of blocked loads due to partial load-store forwarding
system.switch_cpus1.iew.lsq.thread0.rescheduledLoads            0                       # Number of loads that were rescheduled
system.switch_cpus1.iew.lsq.thread0.cacheBlocked           97                       # Number of times an access to memory failed due to the cache being blocked
system.switch_cpus1.iew.iewIdleCycles               0                       # Number of cycles IEW is idle
system.switch_cpus1.iew.iewSquashCycles       3850614                       # Number of cycles IEW is squashing
system.switch_cpus1.iew.iewBlockCycles         786090                       # Number of cycles IEW is blocking
system.switch_cpus1.iew.iewUnblockCycles       108446                       # Number of cycles IEW is unblocking
system.switch_cpus1.iew.iewDispatchedInsts    142083999                       # Number of instructions dispatched to IQ
system.switch_cpus1.iew.iewDispSquashedInsts      1369340                       # Number of squashed instructions skipped by dispatch
system.switch_cpus1.iew.iewDispLoadInsts     13888893                       # Number of dispatched load instructions
system.switch_cpus1.iew.iewDispStoreInsts      7215175                       # Number of dispatched store instructions
system.switch_cpus1.iew.iewDispNonSpecInsts        22317                       # Number of dispatched non-speculative instructions
system.switch_cpus1.iew.iewIQFullEvents         82956                       # Number of times the IQ has become full, causing a stall
system.switch_cpus1.iew.iewLSQFullEvents            0                       # Number of times the LSQ has become full, causing a stall
system.switch_cpus1.iew.memOrderViolationEvents          321                       # Number of memory order violations
system.switch_cpus1.iew.predictedTakenIncorrect      1167800                       # Number of branches that were predicted taken incorrectly
system.switch_cpus1.iew.predictedNotTakenIncorrect      1118583                       # Number of branches that were predicted not taken incorrectly
system.switch_cpus1.iew.branchMispredicts      2286383                       # Number of branch mispredicts detected at execute
system.switch_cpus1.iew.iewExecutedInsts    131132648                       # Number of executed instructions
system.switch_cpus1.iew.iewExecLoadInsts     11956121                       # Number of load instructions executed
system.switch_cpus1.iew.iewExecSquashedInsts      1799992                       # Number of squashed instructions skipped in execute
system.switch_cpus1.iew.exec_swp                    0                       # number of swp insts executed
system.switch_cpus1.iew.exec_nop                    0                       # number of nop insts executed
system.switch_cpus1.iew.exec_refs            19114905                       # number of memory reference insts executed
system.switch_cpus1.iew.exec_branches        18376972                       # Number of branches executed
system.switch_cpus1.iew.exec_stores           7158784                       # Number of stores executed
system.switch_cpus1.iew.exec_rate            0.924331                       # Inst execution rate
system.switch_cpus1.iew.wb_sent             130392444                       # cumulative count of insts sent to commit
system.switch_cpus1.iew.wb_count            130392174                       # cumulative count of insts written-back
system.switch_cpus1.iew.wb_producers         76376333                       # num instructions producing a value
system.switch_cpus1.iew.wb_consumers        207471316                       # num instructions consuming a value
system.switch_cpus1.iew.wb_penalized                0                       # number of instrctions required to write to 'other' IQ
system.switch_cpus1.iew.wb_rate              0.919111                       # insts written-back per cycle
system.switch_cpus1.iew.wb_fanout            0.368130                       # average fanout of values written-back
system.switch_cpus1.iew.wb_penalized_rate            0                       # fraction of instructions written-back that wrote to 'other' IQ
system.switch_cpus1.commit.commitCommittedInsts     97535721                       # The number of committed instructions
system.switch_cpus1.commit.commitCommittedOps    119875582                       # The number of committed instructions
system.switch_cpus1.commit.commitSquashedInsts     22217742                       # The number of squashed insts skipped by commit
system.switch_cpus1.commit.commitNonSpecStalls        32516                       # The number of times commit has been forced to stall to communicate backwards
system.switch_cpus1.commit.branchMispredicts      2016724                       # The number of times a branch was mispredicted
system.switch_cpus1.commit.committed_per_cycle::samples    136388642                       # Number of insts commited each cycle
system.switch_cpus1.commit.committed_per_cycle::mean     0.878926                       # Number of insts commited each cycle
system.switch_cpus1.commit.committed_per_cycle::stdev     1.685184                       # Number of insts commited each cycle
system.switch_cpus1.commit.committed_per_cycle::underflows            0      0.00%      0.00% # Number of insts commited each cycle
system.switch_cpus1.commit.committed_per_cycle::0     87795726     64.37%     64.37% # Number of insts commited each cycle
system.switch_cpus1.commit.committed_per_cycle::1     23362784     17.13%     81.50% # Number of insts commited each cycle
system.switch_cpus1.commit.committed_per_cycle::2      9179353      6.73%     88.23% # Number of insts commited each cycle
system.switch_cpus1.commit.committed_per_cycle::3      4719382      3.46%     91.69% # Number of insts commited each cycle
system.switch_cpus1.commit.committed_per_cycle::4      4120469      3.02%     94.71% # Number of insts commited each cycle
system.switch_cpus1.commit.committed_per_cycle::5      1978889      1.45%     96.16% # Number of insts commited each cycle
system.switch_cpus1.commit.committed_per_cycle::6      1714907      1.26%     97.42% # Number of insts commited each cycle
system.switch_cpus1.commit.committed_per_cycle::7       806873      0.59%     98.01% # Number of insts commited each cycle
system.switch_cpus1.commit.committed_per_cycle::8      2710259      1.99%    100.00% # Number of insts commited each cycle
system.switch_cpus1.commit.committed_per_cycle::overflows            0      0.00%    100.00% # Number of insts commited each cycle
system.switch_cpus1.commit.committed_per_cycle::min_value            0                       # Number of insts commited each cycle
system.switch_cpus1.commit.committed_per_cycle::max_value            8                       # Number of insts commited each cycle
system.switch_cpus1.commit.committed_per_cycle::total    136388642                       # Number of insts commited each cycle
system.switch_cpus1.commit.committedInsts     97535721                       # Number of instructions committed
system.switch_cpus1.commit.committedOps     119875582                       # Number of ops (including micro ops) committed
system.switch_cpus1.commit.swp_count                0                       # Number of s/w prefetches committed
system.switch_cpus1.commit.refs              18034386                       # Number of memory references committed
system.switch_cpus1.commit.loads             10990091                       # Number of loads committed
system.switch_cpus1.commit.membars              16258                       # Number of memory barriers committed
system.switch_cpus1.commit.branches          17192902                       # Number of branches committed
system.switch_cpus1.commit.fp_insts                 0                       # Number of committed floating point instructions.
system.switch_cpus1.commit.int_insts        108051647                       # Number of committed integer instructions.
system.switch_cpus1.commit.function_calls      2445974                       # Number of function calls committed.
system.switch_cpus1.commit.bw_lim_events      2710259                       # number cycles where commit BW limit reached
system.switch_cpus1.commit.bw_limited               0                       # number of insts not committed due to BW limits
system.switch_cpus1.rob.rob_reads           275771707                       # The number of ROB reads
system.switch_cpus1.rob.rob_writes          288037401                       # The number of ROB writes
system.switch_cpus1.timesIdled                  45508                       # Number of times that the entire CPU went into an idle state and unscheduled itself
system.switch_cpus1.idleCycles                1628441                       # Total number of cycles that the CPU has spent unscheduled due to idling
system.switch_cpus1.committedInsts           97535721                       # Number of Instructions Simulated
system.switch_cpus1.committedOps            119875582                       # Number of Ops (including micro ops) Simulated
system.switch_cpus1.committedInsts_total     97535721                       # Number of Instructions Simulated
system.switch_cpus1.cpi                      1.454520                       # CPI: Cycles Per Instruction
system.switch_cpus1.cpi_total                1.454520                       # CPI: Total CPI of All Threads
system.switch_cpus1.ipc                      0.687512                       # IPC: Instructions Per Cycle
system.switch_cpus1.ipc_total                0.687512                       # IPC: Total IPC of All Threads
[...]
system.cpu1.icache.ReadReq_avg_miss_latency::total 162332.187500                       # average ReadReq miss latency
system.cpu1.icache.demand_avg_miss_latency::switch_cpus1.inst 162332.187500                       # average overall miss latency
system.cpu1.icache.demand_avg_miss_latency::total 162332.187500                       # average overall miss latency
system.cpu1.icache.overall_avg_miss_latency::switch_cpus1.inst 162332.187500                       # average overall miss latency
system.cpu1.icache.overall_avg_miss_latency::total 162332.187500                       # average overall miss latency
system.cpu1.icache.blocked_cycles::no_mshrs            0                       # number of cycles access was blocked
system.cpu1.icache.blocked_cycles::no_targets            0                       # number of cycles access was blocked
system.cpu1.icache.blocked::no_mshrs                0                       # number of cycles access was blocked
system.cpu1.icache.blocked::no_targets              0                       # number of cycles access was blocked
system.cpu1.icache.avg_blocked_cycles::no_mshrs          nan                       # average number of cycles each access was blocked
system.cpu1.icache.avg_blocked_cycles::no_targets          nan                       # average number of cycles each access was blocked
system.cpu1.icache.fast_writes                      0                       # number of fast writes performed
system.cpu1.icache.cache_copies                     0                       # number of cache copies performed
system.cpu1.icache.ReadReq_mshr_hits::switch_cpus1.inst            2                       # number of ReadReq MSHR hits
system.cpu1.icache.ReadReq_mshr_hits::total            2                       # number of ReadReq MSHR hits
system.cpu1.icache.demand_mshr_hits::switch_cpus1.inst            2                       # number of demand (read+write) MSHR hits
system.cpu1.icache.demand_mshr_hits::total            2                       # number of demand (read+write) MSHR hits
system.cpu1.icache.overall_mshr_hits::switch_cpus1.inst            2                       # number of overall MSHR hits
system.cpu1.icache.overall_mshr_hits::total            2                       # number of overall MSHR hits
system.cpu1.icache.ReadReq_mshr_misses::switch_cpus1.inst           14                       # number of ReadReq MSHR misses
system.cpu1.icache.ReadReq_mshr_misses::total           14                       # number of ReadReq MSHR misses
system.cpu1.icache.demand_mshr_misses::switch_cpus1.inst           14                       # number of demand (read+write) MSHR misses
system.cpu1.icache.demand_mshr_misses::total           14                       # number of demand (read+write) MSHR misses
system.cpu1.icache.overall_mshr_misses::switch_cpus1.inst           14                       # number of overall MSHR misses
system.cpu1.icache.overall_mshr_misses::total           14                       # number of overall MSHR misses
system.cpu1.icache.ReadReq_mshr_miss_latency::switch_cpus1.inst      2326329                       # number of ReadReq MSHR miss cycles
system.cpu1.icache.ReadReq_mshr_miss_latency::total      2326329                       # number of ReadReq MSHR miss cycles
system.cpu1.icache.demand_mshr_miss_latency::switch_cpus1.inst      2326329                       # number of demand (read+write) MSHR miss cycles
system.cpu1.icache.demand_mshr_miss_latency::total      2326329                       # number of demand (read+write) MSHR miss cycles
system.cpu1.icache.overall_mshr_miss_latency::switch_cpus1.inst      2326329                       # number of overall MSHR miss cycles
system.cpu1.icache.overall_mshr_miss_latency::total      2326329                       # number of overall MSHR miss cycles
system.cpu1.icache.ReadReq_mshr_miss_rate::switch_cpus1.inst     0.000001                       # mshr miss rate for ReadReq accesses
system.cpu1.icache.ReadReq_mshr_miss_rate::total     0.000001                       # mshr miss rate for ReadReq accesses
system.cpu1.icache.demand_mshr_miss_rate::switch_cpus1.inst     0.000001                       # mshr miss rate for demand accesses
system.cpu1.icache.demand_mshr_miss_rate::total     0.000001                       # mshr miss rate for demand accesses
system.cpu1.icache.overall_mshr_miss_rate::switch_cpus1.inst     0.000001                       # mshr miss rate for overall accesses
system.cpu1.icache.overall_mshr_miss_rate::total     0.000001                       # mshr miss rate for overall accesses
system.cpu1.icache.ReadReq_avg_mshr_miss_latency::switch_cpus1.inst 166166.357143                       # average ReadReq mshr miss latency
system.cpu1.icache.ReadReq_avg_mshr_miss_latency::total 166166.357143                       # average ReadReq mshr miss latency
system.cpu1.icache.demand_avg_mshr_miss_latency::switch_cpus1.inst 166166.357143                       # average overall mshr miss latency
system.cpu1.icache.demand_avg_mshr_miss_latency::total 166166.357143                       # average overall mshr miss latency
system.cpu1.icache.overall_avg_mshr_miss_latency::switch_cpus1.inst 166166.357143                       # average overall mshr miss latency
system.cpu1.icache.overall_avg_mshr_miss_latency::total 166166.357143                       # average overall mshr miss latency
system.cpu1.icache.no_allocate_misses               0                       # Number of misses that were no-allocate
system.cpu1.dcache.replacements                 51016                       # number of replacements
system.cpu1.dcache.tagsinuse                      256                       # Cycle average of tags in use
system.cpu1.dcache.total_refs               172414284                       # Total number of references to valid blocks.
system.cpu1.dcache.sampled_refs                 51272                       # Sample count of references to valid blocks.
system.cpu1.dcache.avg_refs               3362.737635                       # Average number of references to valid blocks.
system.cpu1.dcache.warmup_cycle                     0                       # Cycle when the warmup percentage was hit.
system.cpu1.dcache.occ_blocks::switch_cpus1.data   233.206363                       # Average occupied blocks per requestor
system.cpu1.dcache.occ_blocks::cpu1.data    22.793637                       # Average occupied blocks per requestor
system.cpu1.dcache.occ_percent::switch_cpus1.data     0.910962                       # Average percentage of cache occupancy
system.cpu1.dcache.occ_percent::cpu1.data     0.089038                       # Average percentage of cache occupancy
system.cpu1.dcache.occ_percent::total               1                       # Average percentage of cache occupancy
system.cpu1.dcache.ReadReq_hits::switch_cpus1.data      8903825                       # number of ReadReq hits
system.cpu1.dcache.ReadReq_hits::total        8903825                       # number of ReadReq hits
system.cpu1.dcache.WriteReq_hits::switch_cpus1.data      7007923                       # number of WriteReq hits
system.cpu1.dcache.WriteReq_hits::total       7007923                       # number of WriteReq hits
system.cpu1.dcache.LoadLockedReq_hits::switch_cpus1.data        17117                       # number of LoadLockedReq hits
system.cpu1.dcache.LoadLockedReq_hits::total        17117                       # number of LoadLockedReq hits
system.cpu1.dcache.StoreCondReq_hits::switch_cpus1.data        16258                       # number of StoreCondReq hits
system.cpu1.dcache.StoreCondReq_hits::total        16258                       # number of StoreCondReq hits
system.cpu1.dcache.demand_hits::switch_cpus1.data     15911748                       # number of demand (read+write) hits
system.cpu1.dcache.demand_hits::total        15911748                       # number of demand (read+write) hits
system.cpu1.dcache.overall_hits::switch_cpus1.data     15911748                       # number of overall hits
system.cpu1.dcache.overall_hits::total       15911748                       # number of overall hits
system.cpu1.dcache.ReadReq_misses::switch_cpus1.data       147827                       # number of ReadReq misses
system.cpu1.dcache.ReadReq_misses::total       147827                       # number of ReadReq misses
system.cpu1.dcache.WriteReq_misses::switch_cpus1.data         2872                       # number of WriteReq misses
system.cpu1.dcache.WriteReq_misses::total         2872                       # number of WriteReq misses
system.cpu1.dcache.demand_misses::switch_cpus1.data       150699                       # number of demand (read+write) misses
system.cpu1.dcache.demand_misses::total        150699                       # number of demand (read+write) misses
system.cpu1.dcache.overall_misses::switch_cpus1.data       150699                       # number of overall misses
system.cpu1.dcache.overall_misses::total       150699                       # number of overall misses
system.cpu1.dcache.ReadReq_miss_latency::switch_cpus1.data  12596944420                       # number of ReadReq miss cycles
system.cpu1.dcache.ReadReq_miss_latency::total  12596944420                       # number of ReadReq miss cycles
system.cpu1.dcache.WriteReq_miss_latency::switch_cpus1.data    442736762                       # number of WriteReq miss cycles
system.cpu1.dcache.WriteReq_miss_latency::total    442736762                       # number of WriteReq miss cycles
system.cpu1.dcache.demand_miss_latency::switch_cpus1.data  13039681182                       # number of demand (read+write) miss cycles
system.cpu1.dcache.demand_miss_latency::total  13039681182                       # number of demand (read+write) miss cycles
system.cpu1.dcache.overall_miss_latency::switch_cpus1.data  13039681182                       # number of overall miss cycles
system.cpu1.dcache.overall_miss_latency::total  13039681182                       # number of overall miss cycles
system.cpu1.dcache.ReadReq_accesses::switch_cpus1.data      9051652                       # number of ReadReq accesses(hits+misses)
system.cpu1.dcache.ReadReq_accesses::total      9051652                       # number of ReadReq accesses(hits+misses)
system.cpu1.dcache.WriteReq_accesses::switch_cpus1.data      7010795                       # number of WriteReq accesses(hits+misses)
system.cpu1.dcache.WriteReq_accesses::total      7010795                       # number of WriteReq accesses(hits+misses)
system.cpu1.dcache.LoadLockedReq_accesses::switch_cpus1.data        17117                       # number of LoadLockedReq accesses(hits+misses)
system.cpu1.dcache.LoadLockedReq_accesses::total        17117                       # number of LoadLockedReq accesses(hits+misses)
system.cpu1.dcache.StoreCondReq_accesses::switch_cpus1.data        16258                       # number of StoreCondReq accesses(hits+misses)
system.cpu1.dcache.StoreCondReq_accesses::total        16258                       # number of StoreCondReq accesses(hits+misses)
system.cpu1.dcache.demand_accesses::switch_cpus1.data     16062447                       # number of demand (read+write) accesses
system.cpu1.dcache.demand_accesses::total     16062447                       # number of demand (read+write) accesses
system.cpu1.dcache.overall_accesses::switch_cpus1.data     16062447                       # number of overall (read+write) accesses
system.cpu1.dcache.overall_accesses::total     16062447                       # number of overall (read+write) accesses
system.cpu1.dcache.ReadReq_miss_rate::switch_cpus1.data     0.016331                       # miss rate for ReadReq accesses
system.cpu1.dcache.ReadReq_miss_rate::total     0.016331                       # miss rate for ReadReq accesses
system.cpu1.dcache.WriteReq_miss_rate::switch_cpus1.data     0.000410                       # miss rate for WriteReq accesses
system.cpu1.dcache.WriteReq_miss_rate::total     0.000410                       # miss rate for WriteReq accesses
system.cpu1.dcache.demand_miss_rate::switch_cpus1.data     0.009382                       # miss rate for demand accesses
system.cpu1.dcache.demand_miss_rate::total     0.009382                       # miss rate for demand accesses
system.cpu1.dcache.overall_miss_rate::switch_cpus1.data     0.009382                       # miss rate for overall accesses
system.cpu1.dcache.overall_miss_rate::total     0.009382                       # miss rate for overall accesses
system.cpu1.dcache.ReadReq_avg_miss_latency::switch_cpus1.data 85214.097695                       # average ReadReq miss latency
system.cpu1.dcache.ReadReq_avg_miss_latency::total 85214.097695                       # average ReadReq miss latency
system.cpu1.dcache.WriteReq_avg_miss_latency::switch_cpus1.data 154156.254178                       # average WriteReq miss latency
system.cpu1.dcache.WriteReq_avg_miss_latency::total 154156.254178                       # average WriteReq miss latency
system.cpu1.dcache.demand_avg_miss_latency::switch_cpus1.data 86527.987458                       # average overall miss latency
system.cpu1.dcache.demand_avg_miss_latency::total 86527.987458                       # average overall miss latency
system.cpu1.dcache.overall_avg_miss_latency::switch_cpus1.data 86527.987458                       # average overall miss latency
system.cpu1.dcache.overall_avg_miss_latency::total 86527.987458                       # average overall miss latency
system.cpu1.dcache.blocked_cycles::no_mshrs            0                       # number of cycles access was blocked
system.cpu1.dcache.blocked_cycles::no_targets      1348597                       # number of cycles access was blocked
system.cpu1.dcache.blocked::no_mshrs                0                       # number of cycles access was blocked
system.cpu1.dcache.blocked::no_targets             12                       # number of cycles access was blocked
system.cpu1.dcache.avg_blocked_cycles::no_mshrs          nan                       # average number of cycles each access was blocked
system.cpu1.dcache.avg_blocked_cycles::no_targets 112383.083333                       # average number of cycles each access was blocked
system.cpu1.dcache.fast_writes                      0                       # number of fast writes performed
system.cpu1.dcache.cache_copies                     0                       # number of cache copies performed
system.cpu1.dcache.writebacks::writebacks        27961                       # number of writebacks
system.cpu1.dcache.writebacks::total            27961                       # number of writebacks
system.cpu1.dcache.ReadReq_mshr_hits::switch_cpus1.data        96815                       # number of ReadReq MSHR hits
system.cpu1.dcache.ReadReq_mshr_hits::total        96815                       # number of ReadReq MSHR hits
system.cpu1.dcache.WriteReq_mshr_hits::switch_cpus1.data         2868                       # number of WriteReq MSHR hits
system.cpu1.dcache.WriteReq_mshr_hits::total         2868                       # number of WriteReq MSHR hits
system.cpu1.dcache.demand_mshr_hits::switch_cpus1.data        99683                       # number of demand (read+write) MSHR hits
system.cpu1.dcache.demand_mshr_hits::total        99683                       # number of demand (read+write) MSHR hits
system.cpu1.dcache.overall_mshr_hits::switch_cpus1.data        99683                       # number of overall MSHR hits
system.cpu1.dcache.overall_mshr_hits::total        99683                       # number of overall MSHR hits
system.cpu1.dcache.ReadReq_mshr_misses::switch_cpus1.data        51012                       # number of ReadReq MSHR misses
system.cpu1.dcache.ReadReq_mshr_misses::total        51012                       # number of ReadReq MSHR misses
system.cpu1.dcache.WriteReq_mshr_misses::switch_cpus1.data            4                       # number of WriteReq MSHR misses
system.cpu1.dcache.WriteReq_mshr_misses::total            4                       # number of WriteReq MSHR misses
system.cpu1.dcache.demand_mshr_misses::switch_cpus1.data        51016                       # number of demand (read+write) MSHR misses
system.cpu1.dcache.demand_mshr_misses::total        51016                       # number of demand (read+write) MSHR misses
system.cpu1.dcache.overall_mshr_misses::switch_cpus1.data        51016                       # number of overall MSHR misses
system.cpu1.dcache.overall_mshr_misses::total        51016                       # number of overall MSHR misses
system.cpu1.dcache.ReadReq_mshr_miss_latency::switch_cpus1.data   3641075820                       # number of ReadReq MSHR miss cycles
system.cpu1.dcache.ReadReq_mshr_miss_latency::total   3641075820                       # number of ReadReq MSHR miss cycles
system.cpu1.dcache.WriteReq_mshr_miss_latency::switch_cpus1.data       797042                       # number of WriteReq MSHR miss cycles
system.cpu1.dcache.WriteReq_mshr_miss_latency::total       797042                       # number of WriteReq MSHR miss cycles
system.cpu1.dcache.demand_mshr_miss_latency::switch_cpus1.data   3641872862                       # number of demand (read+write) MSHR miss cycles
system.cpu1.dcache.demand_mshr_miss_latency::total   3641872862                       # number of demand (read+write) MSHR miss cycles
system.cpu1.dcache.overall_mshr_miss_latency::switch_cpus1.data   3641872862                       # number of overall MSHR miss cycles
system.cpu1.dcache.overall_mshr_miss_latency::total   3641872862                       # number of overall MSHR miss cycles
system.cpu1.dcache.ReadReq_mshr_miss_rate::switch_cpus1.data     0.005636                       # mshr miss rate for ReadReq accesses
system.cpu1.dcache.ReadReq_mshr_miss_rate::total     0.005636                       # mshr miss rate for ReadReq accesses
system.cpu1.dcache.WriteReq_mshr_miss_rate::switch_cpus1.data     0.000001                       # mshr miss rate for WriteReq accesses
system.cpu1.dcache.WriteReq_mshr_miss_rate::total     0.000001                       # mshr miss rate for WriteReq accesses
system.cpu1.dcache.demand_mshr_miss_rate::switch_cpus1.data     0.003176                       # mshr miss rate for demand accesses
system.cpu1.dcache.demand_mshr_miss_rate::total     0.003176                       # mshr miss rate for demand accesses
system.cpu1.dcache.overall_mshr_miss_rate::switch_cpus1.data     0.003176                       # mshr miss rate for overall accesses
system.cpu1.dcache.overall_mshr_miss_rate::total     0.003176                       # mshr miss rate for overall accesses
system.cpu1.dcache.ReadReq_avg_mshr_miss_latency::switch_cpus1.data 71376.848977                       # average ReadReq mshr miss latency
system.cpu1.dcache.ReadReq_avg_mshr_miss_latency::total 71376.848977                       # average ReadReq mshr miss latency
system.cpu1.dcache.WriteReq_avg_mshr_miss_latency::switch_cpus1.data 199260.500000                       # average WriteReq mshr miss latency
system.cpu1.dcache.WriteReq_avg_mshr_miss_latency::total 199260.500000                       # average WriteReq mshr miss latency
system.cpu1.dcache.demand_avg_mshr_miss_latency::switch_cpus1.data 71386.875921                       # average overall mshr miss latency
system.cpu1.dcache.demand_avg_mshr_miss_latency::total 71386.875921                       # average overall mshr miss latency
system.cpu1.dcache.overall_avg_mshr_miss_latency::switch_cpus1.data 71386.875921                       # average overall mshr miss latency
system.cpu1.dcache.overall_avg_mshr_miss_latency::total 71386.875921                       # average overall mshr miss latency
system.cpu1.dcache.no_allocate_misses               0                       # Number of misses that were no-allocate

---------- End Simulation Statistics   ----------
