
---------- Begin Simulation Statistics ----------
sim_seconds                                  0.032649                       # Number of seconds simulated
sim_ticks                                 32648753541                       # Number of ticks simulated
final_tick                               604151676660                       # Number of ticks from beginning of simulation (restored from checkpoints and never reset)
sim_freq                                 1000000000000                       # Frequency of simulated ticks
host_inst_rate                                 333981                       # Simulator instruction rate (inst/s)
host_op_rate                                   427571                       # Simulator op (including micro ops) rate (op/s)
host_tick_rate                                2352064                       # Simulator tick rate (ticks/s)
host_mem_usage                               16924348                       # Number of bytes of host memory used
host_seconds                                 13880.89                       # Real time elapsed on the host
sim_insts                                  4635957073                       # Number of instructions simulated
sim_ops                                    5935072458                       # Number of ops (including micro ops) simulated
system.physmem.bytes_read::switch_cpus0.inst         2048                       # Number of bytes read from this memory
system.physmem.bytes_read::switch_cpus0.data      1770624                       # Number of bytes read from this memory
system.physmem.bytes_read::switch_cpus1.inst         1664                       # Number of bytes read from this memory
system.physmem.bytes_read::switch_cpus1.data      1988352                       # Number of bytes read from this memory
system.physmem.bytes_read::switch_cpus2.inst         2560                       # Number of bytes read from this memory
system.physmem.bytes_read::switch_cpus2.data       673792                       # Number of bytes read from this memory
system.physmem.bytes_read::switch_cpus3.inst         1664                       # Number of bytes read from this memory
system.physmem.bytes_read::switch_cpus3.data      1137152                       # Number of bytes read from this memory
system.physmem.bytes_read::total              5577856                       # Number of bytes read from this memory
system.physmem.bytes_inst_read::switch_cpus0.inst         2048                       # Number of instructions bytes read from this memory
system.physmem.bytes_inst_read::switch_cpus1.inst         1664                       # Number of instructions bytes read from this memory
system.physmem.bytes_inst_read::switch_cpus2.inst         2560                       # Number of instructions bytes read from this memory
system.physmem.bytes_inst_read::switch_cpus3.inst         1664                       # Number of instructions bytes read from this memory
system.physmem.bytes_inst_read::total            7936                       # Number of instructions bytes read from this memory
system.physmem.bytes_written::writebacks      1914112                       # Number of bytes written to this memory
system.physmem.bytes_written::total           1914112                       # Number of bytes written to this memory
system.physmem.num_reads::switch_cpus0.inst           16                       # Number of read requests responded to by this memory
system.physmem.num_reads::switch_cpus0.data        13833                       # Number of read requests responded to by this memory
system.physmem.num_reads::switch_cpus1.inst           13                       # Number of read requests responded to by this memory
system.physmem.num_reads::switch_cpus1.data        15534                       # Number of read requests responded to by this memory
system.physmem.num_reads::switch_cpus2.inst           20                       # Number of read requests responded to by this memory
system.physmem.num_reads::switch_cpus2.data         5264                       # Number of read requests responded to by this memory
system.physmem.num_reads::switch_cpus3.inst           13                       # Number of read requests responded to by this memory
system.physmem.num_reads::switch_cpus3.data         8884                       # Number of read requests responded to by this memory
system.physmem.num_reads::total                 43577                       # Number of read requests responded to by this memory
system.physmem.num_writes::writebacks           14954                       # Number of write requests responded to by this memory
system.physmem.num_writes::functional               0                       # Number of write requests responded to by this memory
system.physmem.num_writes::interrupt                0                       # Number of write requests responded to by this memory
system.physmem.num_writes::switch_cpus0.dtb.walker            0                       # Number of write requests responded to by this memory
system.physmem.num_writes::switch_cpus0.itb.walker            0                       # Number of write requests responded to by this memory
system.physmem.num_writes::switch_cpus0.inst            0                       # Number of write requests responded to by this memory
system.physmem.num_writes::switch_cpus0.data            0                       # Number of write requests responded to by this memory
system.physmem.num_writes::switch_cpus1.dtb.walker            0                       # Number of write requests responded to by this memory
system.physmem.num_writes::switch_cpus1.itb.walker            0                       # Number of write requests responded to by this memory
system.physmem.num_writes::switch_cpus1.inst            0                       # Number of write requests responded to by this memory
system.physmem.num_writes::switch_cpus1.data            0                       # Number of write requests responded to by this memory
system.physmem.num_writes::switch_cpus2.dtb.walker            0                       # Number of write requests responded to by this memory
system.physmem.num_writes::switch_cpus2.itb.walker            0                       # Number of write requests responded to by this memory
system.physmem.num_writes::switch_cpus2.inst            0                       # Number of write requests responded to by this memory
system.physmem.num_writes::switch_cpus2.data            0                       # Number of write requests responded to by this memory
system.physmem.num_writes::switch_cpus3.dtb.walker            0                       # Number of write requests responded to by this memory
system.physmem.num_writes::switch_cpus3.itb.walker            0                       # Number of write requests responded to by this memory
system.physmem.num_writes::switch_cpus3.inst            0                       # Number of write requests responded to by this memory
system.physmem.num_writes::switch_cpus3.data            0                       # Number of write requests responded to by this memory
system.physmem.num_writes::cpu0.dtb.walker            0                       # Number of write requests responded to by this memory
system.physmem.num_writes::cpu0.itb.walker            0                       # Number of write requests responded to by this memory
system.physmem.num_writes::cpu0.inst                0                       # Number of write requests responded to by this memory
system.physmem.num_writes::cpu0.data                0                       # Number of write requests responded to by this memory
system.physmem.num_writes::cpu1.dtb.walker            0                       # Number of write requests responded to by this memory
system.physmem.num_writes::cpu1.itb.walker            0                       # Number of write requests responded to by this memory
system.physmem.num_writes::cpu1.inst                0                       # Number of write requests responded to by this memory
system.physmem.num_writes::cpu1.data                0                       # Number of write requests responded to by this memory
system.physmem.num_writes::cpu2.dtb.walker            0                       # Number of write requests responded to by this memory
system.physmem.num_writes::cpu2.itb.walker            0                       # Number of write requests responded to by this memory
system.physmem.num_writes::cpu2.inst                0                       # Number of write requests responded to by this memory
system.physmem.num_writes::cpu2.data                0                       # Number of write requests responded to by this memory
system.physmem.num_writes::cpu3.dtb.walker            0                       # Number of write requests responded to by this memory
system.physmem.num_writes::cpu3.itb.walker            0                       # Number of write requests responded to by this memory
system.physmem.num_writes::cpu3.inst                0                       # Number of write requests responded to by this memory
system.physmem.num_writes::cpu3.data                0                       # Number of write requests responded to by this memory
system.physmem.num_writes::total                14954                       # Number of write requests responded to by this memory
system.physmem.bw_read::switch_cpus0.inst        62728                       # Total read bandwidth from this memory (bytes/s)
system.physmem.bw_read::switch_cpus0.data     54232515                       # Total read bandwidth from this memory (bytes/s)
system.physmem.bw_read::switch_cpus1.inst        50967                       # Total read bandwidth from this memory (bytes/s)
system.physmem.bw_read::switch_cpus1.data     60901314                       # Total read bandwidth from this memory (bytes/s)
system.physmem.bw_read::switch_cpus2.inst        78410                       # Total read bandwidth from this memory (bytes/s)
system.physmem.bw_read::switch_cpus2.data     20637603                       # Total read bandwidth from this memory (bytes/s)
system.physmem.bw_read::switch_cpus3.inst        50967                       # Total read bandwidth from this memory (bytes/s)
system.physmem.bw_read::switch_cpus3.data     34829875                       # Total read bandwidth from this memory (bytes/s)
system.physmem.bw_read::total               170844378                       # Total read bandwidth from this memory (bytes/s)
system.physmem.bw_inst_read::switch_cpus0.inst        62728                       # Instruction read bandwidth from this memory (bytes/s)
system.physmem.bw_inst_read::switch_cpus1.inst        50967                       # Instruction read bandwidth from this memory (bytes/s)
system.physmem.bw_inst_read::switch_cpus2.inst        78410                       # Instruction read bandwidth from this memory (bytes/s)
system.physmem.bw_inst_read::switch_cpus3.inst        50967                       # Instruction read bandwidth from this memory (bytes/s)
system.physmem.bw_inst_read::total             243072                       # Instruction read bandwidth from this memory (bytes/s)
system.physmem.bw_write::writebacks          58627414                       # Write bandwidth from this memory (bytes/s)
system.physmem.bw_write::total               58627414                       # Write bandwidth from this memory (bytes/s)
system.physmem.bw_total::writebacks          58627414                       # Total bandwidth to/from this memory (bytes/s)
system.physmem.bw_total::switch_cpus0.inst        62728                       # Total bandwidth to/from this memory (bytes/s)
system.physmem.bw_total::switch_cpus0.data     54232515                       # Total bandwidth to/from this memory (bytes/s)
system.physmem.bw_total::switch_cpus1.inst        50967                       # Total bandwidth to/from this memory (bytes/s)
system.physmem.bw_total::switch_cpus1.data     60901314                       # Total bandwidth to/from this memory (bytes/s)
system.physmem.bw_total::switch_cpus2.inst        78410                       # Total bandwidth to/from this memory (bytes/s)
system.physmem.bw_total::switch_cpus2.data     20637603                       # Total bandwidth to/from this memory (bytes/s)
system.physmem.bw_total::switch_cpus3.inst        50967                       # Total bandwidth to/from this memory (bytes/s)
system.physmem.bw_total::switch_cpus3.data     34829875                       # Total bandwidth to/from this memory (bytes/s)
system.physmem.bw_total::total              229471793                       # Total bandwidth to/from this memory (bytes/s)
system.switch_cpus0.dtb.inst_hits                   0                       # ITB inst hits
system.switch_cpus0.dtb.inst_misses                 0                       # ITB inst misses
system.switch_cpus0.dtb.read_hits                   0                       # DTB read hits
system.switch_cpus0.dtb.read_misses                 0                       # DTB read misses
system.switch_cpus0.dtb.write_hits                  0                       # DTB write hits
system.switch_cpus0.dtb.write_misses                0                       # DTB write misses
system.switch_cpus0.dtb.flush_tlb                   0                       # Number of times complete TLB was flushed
system.switch_cpus0.dtb.flush_tlb_mva               0                       # Number of times TLB was flushed by MVA
system.switch_cpus0.dtb.flush_tlb_mva_asid            0                       # Number of times TLB was flushed by MVA & ASID
system.switch_cpus0.dtb.flush_tlb_asid              0                       # Number of times TLB was flushed by ASID
system.switch_cpus0.dtb.flush_entries               0                       # Number of entries that have been flushed from TLB
system.switch_cpus0.dtb.align_faults                0                       # Number of TLB faults due to alignment restrictions
system.switch_cpus0.dtb.prefetch_faults             0                       # Number of TLB faults due to prefetch
system.switch_cpus0.dtb.domain_faults               0                       # Number of TLB faults due to domain restrictions
system.switch_cpus0.dtb.perms_faults                0                       # Number of TLB faults due to permissions restrictions
system.switch_cpus0.dtb.read_accesses               0                       # DTB read accesses
system.switch_cpus0.dtb.write_accesses              0                       # DTB write accesses
system.switch_cpus0.dtb.inst_accesses               0                       # ITB inst accesses
system.switch_cpus0.dtb.hits                        0                       # DTB hits
system.switch_cpus0.dtb.misses                      0                       # DTB misses
system.switch_cpus0.dtb.accesses                    0                       # DTB accesses
system.switch_cpus0.itb.inst_hits                   0                       # ITB inst hits
system.switch_cpus0.itb.inst_misses                 0                       # ITB inst misses
system.switch_cpus0.itb.read_hits                   0                       # DTB read hits
system.switch_cpus0.itb.read_misses                 0                       # DTB read misses
system.switch_cpus0.itb.write_hits                  0                       # DTB write hits
system.switch_cpus0.itb.write_misses                0                       # DTB write misses
system.switch_cpus0.itb.flush_tlb                   0                       # Number of times complete TLB was flushed
system.switch_cpus0.itb.flush_tlb_mva               0                       # Number of times TLB was flushed by MVA
system.switch_cpus0.itb.flush_tlb_mva_asid            0                       # Number of times TLB was flushed by MVA & ASID
system.switch_cpus0.itb.flush_tlb_asid              0                       # Number of times TLB was flushed by ASID
system.switch_cpus0.itb.flush_entries               0                       # Number of entries that have been flushed from TLB
system.switch_cpus0.itb.align_faults                0                       # Number of TLB faults due to alignment restrictions
system.switch_cpus0.itb.prefetch_faults             0                       # Number of TLB faults due to prefetch
system.switch_cpus0.itb.domain_faults               0                       # Number of TLB faults due to domain restrictions
system.switch_cpus0.itb.perms_faults                0                       # Number of TLB faults due to permissions restrictions
system.switch_cpus0.itb.read_accesses               0                       # DTB read accesses
system.switch_cpus0.itb.write_accesses              0                       # DTB write accesses
system.switch_cpus0.itb.inst_accesses               0                       # ITB inst accesses
system.switch_cpus0.itb.hits                        0                       # DTB hits
system.switch_cpus0.itb.misses                      0                       # DTB misses
system.switch_cpus0.itb.accesses                    0                       # DTB accesses
system.cpu0.workload.num_syscalls                   0                       # Number of system calls
system.switch_cpus0.numCycles                78294374                       # number of cpu cycles simulated
system.switch_cpus0.numWorkItemsStarted             0                       # number of work items this cpu started
system.switch_cpus0.numWorkItemsCompleted            0                       # number of work items this cpu completed
system.switch_cpus0.BPredUnit.lookups        28440388                       # Number of BP lookups
system.switch_cpus0.BPredUnit.condPredicted     24865837                       # Number of conditional branches predicted
system.switch_cpus0.BPredUnit.condIncorrect      1803127                       # Number of conditional branches incorrect
system.switch_cpus0.BPredUnit.BTBLookups     14165508                       # Number of BTB lookups
system.switch_cpus0.BPredUnit.BTBHits        13681964                       # Number of BTB hits
system.switch_cpus0.BPredUnit.BTBCorrect            0                       # Number of correct BTB predictions (this stat may not work properly.
system.switch_cpus0.BPredUnit.usedRAS         2042329                       # Number of times the RAS was used to get a target.
system.switch_cpus0.BPredUnit.RASInCorrect        56364                       # Number of incorrect RAS predictions.
system.switch_cpus0.fetch.icacheStallCycles     33535693                       # Number of cycles fetch is stalled on an Icache miss
system.switch_cpus0.fetch.Insts             158228002                       # Number of instructions fetch has processed
system.switch_cpus0.fetch.Branches           28440388                       # Number of branches that fetch encountered
system.switch_cpus0.fetch.predictedBranches     15724293                       # Number of branches that fetch has predicted taken
system.switch_cpus0.fetch.Cycles             32574963                       # Number of cycles fetch has run and was not squashing or blocked
system.switch_cpus0.fetch.SquashCycles        8850025                       # Number of cycles fetch has spent squashing
system.switch_cpus0.fetch.BlockedCycles       3854392                       # Number of cycles fetch has spent blocked
system.switch_cpus0.fetch.PendingTrapStallCycles           18                       # Number of stall cycles due to pending traps
system.switch_cpus0.fetch.CacheLines         16532827                       # Number of cache lines fetched
system.switch_cpus0.fetch.IcacheSquashes       717782                       # Number of outstanding Icache misses that were squashed
system.switch_cpus0.fetch.rateDist::samples     77001710                       # Number of instructions fetched each cycle (Total)
system.switch_cpus0.fetch.rateDist::mean     2.365287                       # Number of instructions fetched each cycle (Total)
system.switch_cpus0.fetch.rateDist::stdev     3.171083                       # Number of instructions fetched each cycle (Total)
system.switch_cpus0.fetch.rateDist::underflows            0      0.00%      0.00% # Number of instructions fetched each cycle (Total)
system.switch_cpus0.fetch.rateDist::0        44426747     57.70%     57.70% # Number of instructions fetched each cycle (Total)
system.switch_cpus0.fetch.rateDist::1         1614223      2.10%     59.79% # Number of instructions fetched each cycle (Total)
system.switch_cpus0.fetch.rateDist::2         2955969      3.84%     63.63% # Number of instructions fetched each cycle (Total)
system.switch_cpus0.fetch.rateDist::3         2772133      3.60%     67.23% # Number of instructions fetched each cycle (Total)
system.switch_cpus0.fetch.rateDist::4         4556821      5.92%     73.15% # Number of instructions fetched each cycle (Total)
system.switch_cpus0.fetch.rateDist::5         4745161      6.16%     79.31% # Number of instructions fetched each cycle (Total)
system.switch_cpus0.fetch.rateDist::6         1131141      1.47%     80.78% # Number of instructions fetched each cycle (Total)
system.switch_cpus0.fetch.rateDist::7          847451      1.10%     81.88% # Number of instructions fetched each cycle (Total)
system.switch_cpus0.fetch.rateDist::8        13952064     18.12%    100.00% # Number of instructions fetched each cycle (Total)
system.switch_cpus0.fetch.rateDist::overflows            0      0.00%    100.00% # Number of instructions fetched each cycle (Total)
system.switch_cpus0.fetch.rateDist::min_value            0                       # Number of instructions fetched each cycle (Total)
system.switch_cpus0.fetch.rateDist::max_value            8                       # Number of instructions fetched each cycle (Total)
system.switch_cpus0.fetch.rateDist::total     77001710                       # Number of instructions fetched each cycle (Total)
system.switch_cpus0.fetch.branchRate         0.363249                       # Number of branch fetches per cycle
system.switch_cpus0.fetch.rate               2.020937                       # Number of inst fetches per cycle
system.switch_cpus0.decode.IdleCycles        34593017                       # Number of cycles decode is idle
system.switch_cpus0.decode.BlockedCycles      3725017                       # Number of cycles decode is blocked
system.switch_cpus0.decode.RunCycles         31526219                       # Number of cycles decode is running
system.switch_cpus0.decode.UnblockCycles       125992                       # Number of cycles decode is unblocking
system.switch_cpus0.decode.SquashCycles       7031455                       # Number of cycles decode is squashing
system.switch_cpus0.decode.BranchResolved      3097454                       # Number of times decode resolved a branch
system.switch_cpus0.decode.BranchMispred         5203                       # Number of times decode detected a branch misprediction
system.switch_cpus0.decode.DecodedInsts     177024597                       # Number of instructions handled by decode
system.switch_cpus0.decode.SquashedInsts         1374                       # Number of squashed instructions handled by decode
system.switch_cpus0.rename.SquashCycles       7031455                       # Number of cycles rename is squashing
system.switch_cpus0.rename.IdleCycles        36049084                       # Number of cycles rename is idle
system.switch_cpus0.rename.BlockCycles        1300720                       # Number of cycles rename is blocking
system.switch_cpus0.rename.serializeStallCycles       423266                       # count of cycles rename stalled for serializing inst
system.switch_cpus0.rename.RunCycles         30183615                       # Number of cycles rename is running
system.switch_cpus0.rename.UnblockCycles      2013561                       # Number of cycles rename is unblocking
system.switch_cpus0.rename.RenamedInsts     172352408                       # Number of instructions processed by rename
system.switch_cpus0.rename.ROBFullEvents           30                       # Number of times rename has blocked due to ROB full
system.switch_cpus0.rename.IQFullEvents        690133                       # Number of times rename has blocked due to IQ full
system.switch_cpus0.rename.LSQFullEvents       812065                       # Number of times rename has blocked due to LSQ full
system.switch_cpus0.rename.RenamedOperands    228856768                       # Number of destination operands rename has renamed
system.switch_cpus0.rename.RenameLookups    784437343                       # Number of register rename lookups that rename has made
system.switch_cpus0.rename.int_rename_lookups    784437343                       # Number of integer rename lookups
system.switch_cpus0.rename.CommittedMaps    148896161                       # Number of HB maps that are committed
system.switch_cpus0.rename.UndoneMaps        79960596                       # Number of HB maps that are undone due to squashing
system.switch_cpus0.rename.serializingInsts        20345                       # count of serializing insts renamed
system.switch_cpus0.rename.tempSerializingInsts         9941                       # count of temporary serializing insts renamed
system.switch_cpus0.rename.skidInsts          5384251                       # count of insts added to the skid buffer
system.switch_cpus0.memDep0.insertedLoads     26504892                       # Number of loads inserted to the mem dependence unit.
system.switch_cpus0.memDep0.insertedStores      5755513                       # Number of stores inserted to the mem dependence unit.
system.switch_cpus0.memDep0.conflictingLoads        96078                       # Number of conflicting loads.
system.switch_cpus0.memDep0.conflictingStores      1670405                       # Number of conflicting stores.
system.switch_cpus0.iq.iqInstsAdded         163125206                       # Number of instructions added to the IQ (excludes non-spec)
system.switch_cpus0.iq.iqNonSpecInstsAdded        19863                       # Number of non-speculative instructions added to the IQ
system.switch_cpus0.iq.iqInstsIssued        137691686                       # Number of instructions issued
system.switch_cpus0.iq.iqSquashedInstsIssued       180277                       # Number of squashed instructions issued
system.switch_cpus0.iq.iqSquashedInstsExamined     48953685                       # Number of squashed instructions iterated over during squash; mainly for profiling
system.switch_cpus0.iq.iqSquashedOperandsExamined    134281182                       # Number of squashed operands that are examined and possibly removed from graph
system.switch_cpus0.iq.iqSquashedNonSpecRemoved           19                       # Number of squashed non-spec instructions that were removed
system.switch_cpus0.iq.issued_per_cycle::samples     77001710                       # Number of insts issued each cycle
system.switch_cpus0.iq.issued_per_cycle::mean     1.788164                       # Number of insts issued each cycle
system.switch_cpus0.iq.issued_per_cycle::stdev     1.842213                       # Number of insts issued each cycle
system.switch_cpus0.iq.issued_per_cycle::underflows            0      0.00%      0.00% # Number of insts issued each cycle
system.switch_cpus0.iq.issued_per_cycle::0     26650600     34.61%     34.61% # Number of insts issued each cycle
system.switch_cpus0.iq.issued_per_cycle::1     14457956     18.78%     53.39% # Number of insts issued each cycle
system.switch_cpus0.iq.issued_per_cycle::2     12390770     16.09%     69.48% # Number of insts issued each cycle
system.switch_cpus0.iq.issued_per_cycle::3      7679905      9.97%     79.45% # Number of insts issued each cycle
system.switch_cpus0.iq.issued_per_cycle::4      8059794     10.47%     89.92% # Number of insts issued each cycle
system.switch_cpus0.iq.issued_per_cycle::5      4727295      6.14%     96.06% # Number of insts issued each cycle
system.switch_cpus0.iq.issued_per_cycle::6      2095014      2.72%     98.78% # Number of insts issued each cycle
system.switch_cpus0.iq.issued_per_cycle::7       556268      0.72%     99.50% # Number of insts issued each cycle
system.switch_cpus0.iq.issued_per_cycle::8       384108      0.50%    100.00% # Number of insts issued each cycle
system.switch_cpus0.iq.issued_per_cycle::overflows            0      0.00%    100.00% # Number of insts issued each cycle
system.switch_cpus0.iq.issued_per_cycle::min_value            0                       # Number of insts issued each cycle
system.switch_cpus0.iq.issued_per_cycle::max_value            8                       # Number of insts issued each cycle
system.switch_cpus0.iq.issued_per_cycle::total     77001710                       # Number of insts issued each cycle
system.switch_cpus0.iq.fu_full::No_OpClass            0      0.00%      0.00% # attempts to use FU when none available
system.switch_cpus0.iq.fu_full::IntAlu         541141     66.19%     66.19% # attempts to use FU when none available
system.switch_cpus0.iq.fu_full::IntMult             0      0.00%     66.19% # attempts to use FU when none available
system.switch_cpus0.iq.fu_full::IntDiv              0      0.00%     66.19% # attempts to use FU when none available
system.switch_cpus0.iq.fu_full::FloatAdd            0      0.00%     66.19% # attempts to use FU when none available
system.switch_cpus0.iq.fu_full::FloatCmp            0      0.00%     66.19% # attempts to use FU when none available
system.switch_cpus0.iq.fu_full::FloatCvt            0      0.00%     66.19% # attempts to use FU when none available
system.switch_cpus0.iq.fu_full::FloatMult            0      0.00%     66.19% # attempts to use FU when none available
system.switch_cpus0.iq.fu_full::FloatDiv            0      0.00%     66.19% # attempts to use FU when none available
system.switch_cpus0.iq.fu_full::FloatSqrt            0      0.00%     66.19% # attempts to use FU when none available
system.switch_cpus0.iq.fu_full::SimdAdd             0      0.00%     66.19% # attempts to use FU when none available
system.switch_cpus0.iq.fu_full::SimdAddAcc            0      0.00%     66.19% # attempts to use FU when none available
system.switch_cpus0.iq.fu_full::SimdAlu             0      0.00%     66.19% # attempts to use FU when none available
system.switch_cpus0.iq.fu_full::SimdCmp             0      0.00%     66.19% # attempts to use FU when none available
system.switch_cpus0.iq.fu_full::SimdCvt             0      0.00%     66.19% # attempts to use FU when none available
system.switch_cpus0.iq.fu_full::SimdMisc            0      0.00%     66.19% # attempts to use FU when none available
system.switch_cpus0.iq.fu_full::SimdMult            0      0.00%     66.19% # attempts to use FU when none available
system.switch_cpus0.iq.fu_full::SimdMultAcc            0      0.00%     66.19% # attempts to use FU when none available
system.switch_cpus0.iq.fu_full::SimdShift            0      0.00%     66.19% # attempts to use FU when none available
system.switch_cpus0.iq.fu_full::SimdShiftAcc            0      0.00%     66.19% # attempts to use FU when none available
system.switch_cpus0.iq.fu_full::SimdSqrt            0      0.00%     66.19% # attempts to use FU when none available
system.switch_cpus0.iq.fu_full::SimdFloatAdd            0      0.00%     66.19% # attempts to use FU when none available
system.switch_cpus0.iq.fu_full::SimdFloatAlu            0      0.00%     66.19% # attempts to use FU when none available
system.switch_cpus0.iq.fu_full::SimdFloatCmp            0      0.00%     66.19% # attempts to use FU when none available
system.switch_cpus0.iq.fu_full::SimdFloatCvt            0      0.00%     66.19% # attempts to use FU when none available
system.switch_cpus0.iq.fu_full::SimdFloatDiv            0      0.00%     66.19% # attempts to use FU when none available
system.switch_cpus0.iq.fu_full::SimdFloatMisc            0      0.00%     66.19% # attempts to use FU when none available
system.switch_cpus0.iq.fu_full::SimdFloatMult            0      0.00%     66.19% # attempts to use FU when none available
system.switch_cpus0.iq.fu_full::SimdFloatMultAcc            0      0.00%     66.19% # attempts to use FU when none available
system.switch_cpus0.iq.fu_full::SimdFloatSqrt            0      0.00%     66.19% # attempts to use FU when none available
system.switch_cpus0.iq.fu_full::MemRead        174512     21.35%     87.54% # attempts to use FU when none available
system.switch_cpus0.iq.fu_full::MemWrite       101901     12.46%    100.00% # attempts to use FU when none available
system.switch_cpus0.iq.fu_full::IprAccess            0      0.00%    100.00% # attempts to use FU when none available
system.switch_cpus0.iq.fu_full::InstPrefetch            0      0.00%    100.00% # attempts to use FU when none available
system.switch_cpus0.iq.FU_type_0::No_OpClass            0      0.00%      0.00% # Type of FU issued
system.switch_cpus0.iq.FU_type_0::IntAlu    107996408     78.43%     78.43% # Type of FU issued
system.switch_cpus0.iq.FU_type_0::IntMult      1085461      0.79%     79.22% # Type of FU issued
system.switch_cpus0.iq.FU_type_0::IntDiv            0      0.00%     79.22% # Type of FU issued
system.switch_cpus0.iq.FU_type_0::FloatAdd            0      0.00%     79.22% # Type of FU issued
system.switch_cpus0.iq.FU_type_0::FloatCmp            0      0.00%     79.22% # Type of FU issued
system.switch_cpus0.iq.FU_type_0::FloatCvt            0      0.00%     79.22% # Type of FU issued
system.switch_cpus0.iq.FU_type_0::FloatMult            0      0.00%     79.22% # Type of FU issued
system.switch_cpus0.iq.FU_type_0::FloatDiv            0      0.00%     79.22% # Type of FU issued
system.switch_cpus0.iq.FU_type_0::FloatSqrt            0      0.00%     79.22% # Type of FU issued
system.switch_cpus0.iq.FU_type_0::SimdAdd            0      0.00%     79.22% # Type of FU issued
system.switch_cpus0.iq.FU_type_0::SimdAddAcc            0      0.00%     79.22% # Type of FU issued
system.switch_cpus0.iq.FU_type_0::SimdAlu            0      0.00%     79.22% # Type of FU issued
system.switch_cpus0.iq.FU_type_0::SimdCmp            0      0.00%     79.22% # Type of FU issued
system.switch_cpus0.iq.FU_type_0::SimdCvt            0      0.00%     79.22% # Type of FU issued
system.switch_cpus0.iq.FU_type_0::SimdMisc            0      0.00%     79.22% # Type of FU issued
system.switch_cpus0.iq.FU_type_0::SimdMult            0      0.00%     79.22% # Type of FU issued
system.switch_cpus0.iq.FU_type_0::SimdMultAcc            0      0.00%     79.22% # Type of FU issued
system.switch_cpus0.iq.FU_type_0::SimdShift            0      0.00%     79.22% # Type of FU issued
system.switch_cpus0.iq.FU_type_0::SimdShiftAcc            0      0.00%     79.22% # Type of FU issued
system.switch_cpus0.iq.FU_type_0::SimdSqrt            0      0.00%     79.22% # Type of FU issued
system.switch_cpus0.iq.FU_type_0::SimdFloatAdd            0      0.00%     79.22% # Type of FU issued
system.switch_cpus0.iq.FU_type_0::SimdFloatAlu            0      0.00%     79.22% # Type of FU issued
system.switch_cpus0.iq.FU_type_0::SimdFloatCmp            0      0.00%     79.22% # Type of FU issued
system.switch_cpus0.iq.FU_type_0::SimdFloatCvt            0      0.00%     79.22% # Type of FU issued
system.switch_cpus0.iq.FU_type_0::SimdFloatDiv            0      0.00%     79.22% # Type of FU issued
system.switch_cpus0.iq.FU_type_0::SimdFloatMisc         9921      0.01%     79.23% # Type of FU issued
system.switch_cpus0.iq.FU_type_0::SimdFloatMult            0      0.00%     79.23% # Type of FU issued
system.switch_cpus0.iq.FU_type_0::SimdFloatMultAcc            0      0.00%     79.23% # Type of FU issued
system.switch_cpus0.iq.FU_type_0::SimdFloatSqrt            0      0.00%     79.23% # Type of FU issued
system.switch_cpus0.iq.FU_type_0::MemRead     23689590     17.20%     96.43% # Type of FU issued
system.switch_cpus0.iq.FU_type_0::MemWrite      4910306      3.57%    100.00% # Type of FU issued
system.switch_cpus0.iq.FU_type_0::IprAccess            0      0.00%    100.00% # Type of FU issued
system.switch_cpus0.iq.FU_type_0::InstPrefetch            0      0.00%    100.00% # Type of FU issued
system.switch_cpus0.iq.FU_type_0::total     137691686                       # Type of FU issued
system.switch_cpus0.iq.rate                  1.758641                       # Inst issue rate
system.switch_cpus0.iq.fu_busy_cnt             817554                       # FU busy when requested
system.switch_cpus0.iq.fu_busy_rate          0.005938                       # FU busy rate (busy events/executed inst)
system.switch_cpus0.iq.int_inst_queue_reads    353382913                       # Number of integer instruction queue reads
system.switch_cpus0.iq.int_inst_queue_writes    212099166                       # Number of integer instruction queue writes
system.switch_cpus0.iq.int_inst_queue_wakeup_accesses    133196224                       # Number of integer instruction queue wakeup accesses
system.switch_cpus0.iq.fp_inst_queue_reads            0                       # Number of floating instruction queue reads
system.switch_cpus0.iq.fp_inst_queue_writes            0                       # Number of floating instruction queue writes
system.switch_cpus0.iq.fp_inst_queue_wakeup_accesses            0                       # Number of floating instruction queue wakeup accesses
system.switch_cpus0.iq.int_alu_accesses     138509240                       # Number of integer alu accesses
system.switch_cpus0.iq.fp_alu_accesses              0                       # Number of floating point alu accesses
system.switch_cpus0.iew.lsq.thread0.forwLoads       337666                       # Number of loads that had data forwarded from stores
system.switch_cpus0.iew.lsq.thread0.invAddrLoads            0                       # Number of loads ignored due to an invalid address
system.switch_cpus0.iew.lsq.thread0.squashedLoads      7574821                       # Number of loads squashed
system.switch_cpus0.iew.lsq.thread0.ignoredResponses          835                       # Number of memory responses ignored because the instruction is squashed
system.switch_cpus0.iew.lsq.thread0.memOrderViolation          412                       # Number of memory ordering violations
system.switch_cpus0.iew.lsq.thread0.squashedStores      1402158                       # Number of stores squashed
system.switch_cpus0.iew.lsq.thread0.invAddrSwpfs            0                       # Number of software prefetches ignored due to an invalid address
system.switch_cpus0.iew.lsq.thread0.blockedLoads            0                       # Number of blocked loads due to partial load-store forwarding
system.switch_cpus0.iew.lsq.thread0.rescheduledLoads            0                       # Number of loads that were rescheduled
system.switch_cpus0.iew.lsq.thread0.cacheBlocked            0                       # Number of times an access to memory failed due to the cache being blocked
system.switch_cpus0.iew.iewIdleCycles               0                       # Number of cycles IEW is idle
system.switch_cpus0.iew.iewSquashCycles       7031455                       # Number of cycles IEW is squashing
system.switch_cpus0.iew.iewBlockCycles         710221                       # Number of cycles IEW is blocking
system.switch_cpus0.iew.iewUnblockCycles        58911                       # Number of cycles IEW is unblocking
system.switch_cpus0.iew.iewDispatchedInsts    163145072                       # Number of instructions dispatched to IQ
system.switch_cpus0.iew.iewDispSquashedInsts       189732                       # Number of squashed instructions skipped by dispatch
system.switch_cpus0.iew.iewDispLoadInsts     26504892                       # Number of dispatched load instructions
system.switch_cpus0.iew.iewDispStoreInsts      5755513                       # Number of dispatched store instructions
system.switch_cpus0.iew.iewDispNonSpecInsts         9941                       # Number of dispatched non-speculative instructions
system.switch_cpus0.iew.iewIQFullEvents         30881                       # Number of times the IQ has become full, causing a stall
system.switch_cpus0.iew.iewLSQFullEvents          199                       # Number of times the LSQ has become full, causing a stall
system.switch_cpus0.iew.memOrderViolationEvents          412                       # Number of memory order violations
system.switch_cpus0.iew.predictedTakenIncorrect       959255                       # Number of branches that were predicted taken incorrectly
system.switch_cpus0.iew.predictedNotTakenIncorrect      1063737                       # Number of branches that were predicted not taken incorrectly
system.switch_cpus0.iew.branchMispredicts      2022992                       # Number of branch mispredicts detected at execute
system.switch_cpus0.iew.iewExecutedInsts    135110869                       # Number of executed instructions
system.switch_cpus0.iew.iewExecLoadInsts     22769580                       # Number of load instructions executed
system.switch_cpus0.iew.iewExecSquashedInsts      2580817                       # Number of squashed instructions skipped in execute
system.switch_cpus0.iew.exec_swp                    0                       # number of swp insts executed
system.switch_cpus0.iew.exec_nop                    3                       # number of nop insts executed
system.switch_cpus0.iew.exec_refs            27557367                       # number of memory reference insts executed
system.switch_cpus0.iew.exec_branches        20418423                       # Number of branches executed
system.switch_cpus0.iew.exec_stores           4787787                       # Number of stores executed
system.switch_cpus0.iew.exec_rate            1.725678                       # Inst execution rate
system.switch_cpus0.iew.wb_sent             133345855                       # cumulative count of insts sent to commit
system.switch_cpus0.iew.wb_count            133196224                       # cumulative count of insts written-back
system.switch_cpus0.iew.wb_producers         81835225                       # num instructions producing a value
system.switch_cpus0.iew.wb_consumers        199710405                       # num instructions consuming a value
system.switch_cpus0.iew.wb_penalized                0                       # number of instrctions required to write to 'other' IQ
system.switch_cpus0.iew.wb_rate              1.701223                       # insts written-back per cycle
system.switch_cpus0.iew.wb_fanout            0.409769                       # average fanout of values written-back
system.switch_cpus0.iew.wb_penalized_rate            0                       # fraction of instructions written-back that wrote to 'other' IQ
system.switch_cpus0.commit.commitCommittedInsts    100000002                       # The number of committed instructions
system.switch_cpus0.commit.commitCommittedOps    113611585                       # The number of committed instructions
system.switch_cpus0.commit.commitSquashedInsts     49534092                       # The number of squashed insts skipped by commit
system.switch_cpus0.commit.commitNonSpecStalls        19844                       # The number of times commit has been forced to stall to communicate backwards
system.switch_cpus0.commit.branchMispredicts      1807885                       # The number of times a branch was mispredicted
system.switch_cpus0.commit.committed_per_cycle::samples     69970255                       # Number of insts commited each cycle
system.switch_cpus0.commit.committed_per_cycle::mean     1.623713                       # Number of insts commited each cycle
system.switch_cpus0.commit.committed_per_cycle::stdev     2.320141                       # Number of insts commited each cycle
system.switch_cpus0.commit.committed_per_cycle::underflows            0      0.00%      0.00% # Number of insts commited each cycle
system.switch_cpus0.commit.committed_per_cycle::0     32154729     45.95%     45.95% # Number of insts commited each cycle
system.switch_cpus0.commit.committed_per_cycle::1     14855274     21.23%     67.19% # Number of insts commited each cycle
system.switch_cpus0.commit.committed_per_cycle::2      8314357     11.88%     79.07% # Number of insts commited each cycle
system.switch_cpus0.commit.committed_per_cycle::3      2816912      4.03%     83.09% # Number of insts commited each cycle
system.switch_cpus0.commit.committed_per_cycle::4      2690190      3.84%     86.94% # Number of insts commited each cycle
system.switch_cpus0.commit.committed_per_cycle::5      1109592      1.59%     88.52% # Number of insts commited each cycle
system.switch_cpus0.commit.committed_per_cycle::6      2995852      4.28%     92.81% # Number of insts commited each cycle
system.switch_cpus0.commit.committed_per_cycle::7       873763      1.25%     94.06% # Number of insts commited each cycle
system.switch_cpus0.commit.committed_per_cycle::8      4159586      5.94%    100.00% # Number of insts commited each cycle
system.switch_cpus0.commit.committed_per_cycle::overflows            0      0.00%    100.00% # Number of insts commited each cycle
system.switch_cpus0.commit.committed_per_cycle::min_value            0                       # Number of insts commited each cycle
system.switch_cpus0.commit.committed_per_cycle::max_value            8                       # Number of insts commited each cycle
system.switch_cpus0.commit.committed_per_cycle::total     69970255                       # Number of insts commited each cycle
system.switch_cpus0.commit.committedInsts    100000002                       # Number of instructions committed
system.switch_cpus0.commit.committedOps     113611585                       # Number of ops (including micro ops) committed
system.switch_cpus0.commit.swp_count                0                       # Number of s/w prefetches committed
system.switch_cpus0.commit.refs              23283426                       # Number of memory references committed
system.switch_cpus0.commit.loads             18930071                       # Number of loads committed
system.switch_cpus0.commit.membars               9922                       # Number of memory barriers committed
system.switch_cpus0.commit.branches          17789105                       # Number of branches committed
system.switch_cpus0.commit.fp_insts                 0                       # Number of committed floating point instructions.
system.switch_cpus0.commit.int_insts         99179496                       # Number of committed integer instructions.
system.switch_cpus0.commit.function_calls      1536069                       # Number of function calls committed.
system.switch_cpus0.commit.bw_lim_events      4159586                       # number cycles where commit BW limit reached
system.switch_cpus0.commit.bw_limited               0                       # number of insts not committed due to BW limits
system.switch_cpus0.rob.rob_reads           228956346                       # The number of ROB reads
system.switch_cpus0.rob.rob_writes          333328594                       # The number of ROB writes
system.switch_cpus0.timesIdled                  30067                       # Number of times that the entire CPU went into an idle state and unscheduled itself
system.switch_cpus0.idleCycles                1292664                       # Total number of cycles that the CPU has spent unscheduled due to idling
system.switch_cpus0.committedInsts          100000002                       # Number of Instructions Simulated
system.switch_cpus0.committedOps            113611585                       # Number of Ops (including micro ops) Simulated
system.switch_cpus0.committedInsts_total    100000002                       # Number of Instructions Simulated
system.switch_cpus0.cpi                      0.782944                       # CPI: Cycles Per Instruction
system.switch_cpus0.cpi_total                0.782944                       # CPI: Total CPI of All Threads
system.switch_cpus0.ipc                      1.277231                       # IPC: Instructions Per Cycle
system.switch_cpus0.ipc_total                1.277231                       # IPC: Total IPC of All Threads
system.switch_cpus0.int_regfile_reads       624995324                       # number of integer regfile reads
system.switch_cpus0.int_regfile_writes      174581939                       # number of integer regfile writes
system.switch_cpus0.misc_regfile_reads      182475821                       # number of misc regfile reads
system.switch_cpus0.misc_regfile_writes         19844                       # number of misc regfile writes
system.switch_cpus1.dtb.inst_hits                   0                       # ITB inst hits
system.switch_cpus1.dtb.inst_misses                 0                       # ITB inst misses
system.switch_cpus1.dtb.read_hits                   0                       # DTB read hits
system.switch_cpus1.dtb.read_misses                 0                       # DTB read misses
system.switch_cpus1.dtb.write_hits                  0                       # DTB write hits
system.switch_cpus1.dtb.write_misses                0                       # DTB write misses
system.switch_cpus1.dtb.flush_tlb                   0                       # Number of times complete TLB was flushed
system.switch_cpus1.dtb.flush_tlb_mva               0                       # Number of times TLB was flushed by MVA
system.switch_cpus1.dtb.flush_tlb_mva_asid            0                       # Number of times TLB was flushed by MVA & ASID
system.switch_cpus1.dtb.flush_tlb_asid              0                       # Number of times TLB was flushed by ASID
system.switch_cpus1.dtb.flush_entries               0                       # Number of entries that have been flushed from TLB
system.switch_cpus1.dtb.align_faults                0                       # Number of TLB faults due to alignment restrictions
system.switch_cpus1.dtb.prefetch_faults             0                       # Number of TLB faults due to prefetch
system.switch_cpus1.dtb.domain_faults               0                       # Number of TLB faults due to domain restrictions
system.switch_cpus1.dtb.perms_faults                0                       # Number of TLB faults due to permissions restrictions
system.switch_cpus1.dtb.read_accesses               0                       # DTB read accesses
system.switch_cpus1.dtb.write_accesses              0                       # DTB write accesses
system.switch_cpus1.dtb.inst_accesses               0                       # ITB inst accesses
system.switch_cpus1.dtb.hits                        0                       # DTB hits
system.switch_cpus1.dtb.misses                      0                       # DTB misses
system.switch_cpus1.dtb.accesses                    0                       # DTB accesses
system.switch_cpus1.itb.inst_hits                   0                       # ITB inst hits
system.switch_cpus1.itb.inst_misses                 0                       # ITB inst misses
system.switch_cpus1.itb.read_hits                   0                       # DTB read hits
system.switch_cpus1.itb.read_misses                 0                       # DTB read misses
system.switch_cpus1.itb.write_hits                  0                       # DTB write hits
system.switch_cpus1.itb.write_misses                0                       # DTB write misses
system.switch_cpus1.itb.flush_tlb                   0                       # Number of times complete TLB was flushed
system.switch_cpus1.itb.flush_tlb_mva               0                       # Number of times TLB was flushed by MVA
system.switch_cpus1.itb.flush_tlb_mva_asid            0                       # Number of times TLB was flushed by MVA & ASID
system.switch_cpus1.itb.flush_tlb_asid              0                       # Number of times TLB was flushed by ASID
system.switch_cpus1.itb.flush_entries               0                       # Number of entries that have been flushed from TLB
system.switch_cpus1.itb.align_faults                0                       # Number of TLB faults due to alignment restrictions
system.switch_cpus1.itb.prefetch_faults             0                       # Number of TLB faults due to prefetch
system.switch_cpus1.itb.domain_faults               0                       # Number of TLB faults due to domain restrictions
system.switch_cpus1.itb.perms_faults                0                       # Number of TLB faults due to permissions restrictions
system.switch_cpus1.itb.read_accesses               0                       # DTB read accesses
system.switch_cpus1.itb.write_accesses              0                       # DTB write accesses
system.switch_cpus1.itb.inst_accesses               0                       # ITB inst accesses
system.switch_cpus1.itb.hits                        0                       # DTB hits
system.switch_cpus1.itb.misses                      0                       # DTB misses
system.switch_cpus1.itb.accesses                    0                       # DTB accesses
system.cpu1.workload.num_syscalls                   0                       # Number of system calls
system.switch_cpus1.numCycles                78294374                       # number of cpu cycles simulated
system.switch_cpus1.numWorkItemsStarted             0                       # number of work items this cpu started
system.switch_cpus1.numWorkItemsCompleted            0                       # number of work items this cpu completed
system.switch_cpus1.BPredUnit.lookups        28209136                       # Number of BP lookups
system.switch_cpus1.BPredUnit.condPredicted     22925669                       # Number of conditional branches predicted
system.switch_cpus1.BPredUnit.condIncorrect      1925594                       # Number of conditional branches incorrect
system.switch_cpus1.BPredUnit.BTBLookups     11766794                       # Number of BTB lookups
system.switch_cpus1.BPredUnit.BTBHits        10996051                       # Number of BTB hits
system.switch_cpus1.BPredUnit.BTBCorrect            0                       # Number of correct BTB predictions (this stat may not work properly.
system.switch_cpus1.BPredUnit.usedRAS         2976726                       # Number of times the RAS was used to get a target.
system.switch_cpus1.BPredUnit.RASInCorrect        81437                       # Number of incorrect RAS predictions.
system.switch_cpus1.fetch.icacheStallCycles     28301043                       # Number of cycles fetch is stalled on an Icache miss
system.switch_cpus1.fetch.Insts             156435712                       # Number of instructions fetch has processed
system.switch_cpus1.fetch.Branches           28209136                       # Number of branches that fetch encountered
system.switch_cpus1.fetch.predictedBranches     13972777                       # Number of branches that fetch has predicted taken
system.switch_cpus1.fetch.Cycles             34402562                       # Number of cycles fetch has run and was not squashing or blocked
system.switch_cpus1.fetch.SquashCycles       10340616                       # Number of cycles fetch has spent squashing
system.switch_cpus1.fetch.BlockedCycles       5754592                       # Number of cycles fetch has spent blocked
system.switch_cpus1.fetch.PendingTrapStallCycles           12                       # Number of stall cycles due to pending traps
system.switch_cpus1.fetch.CacheLines         13863097                       # Number of cache lines fetched
system.switch_cpus1.fetch.IcacheSquashes       830124                       # Number of outstanding Icache misses that were squashed
system.switch_cpus1.fetch.rateDist::samples     76830366                       # Number of instructions fetched each cycle (Total)
system.switch_cpus1.fetch.rateDist::mean     2.515608                       # Number of instructions fetched each cycle (Total)
system.switch_cpus1.fetch.rateDist::stdev     3.306538                       # Number of instructions fetched each cycle (Total)
system.switch_cpus1.fetch.rateDist::underflows            0      0.00%      0.00% # Number of instructions fetched each cycle (Total)
system.switch_cpus1.fetch.rateDist::0        42427804     55.22%     55.22% # Number of instructions fetched each cycle (Total)
system.switch_cpus1.fetch.rateDist::1         3026907      3.94%     59.16% # Number of instructions fetched each cycle (Total)
system.switch_cpus1.fetch.rateDist::2         2436180      3.17%     62.33% # Number of instructions fetched each cycle (Total)
system.switch_cpus1.fetch.rateDist::3         5939919      7.73%     70.06% # Number of instructions fetched each cycle (Total)
system.switch_cpus1.fetch.rateDist::4         1599637      2.08%     72.15% # Number of instructions fetched each cycle (Total)
system.switch_cpus1.fetch.rateDist::5         2068936      2.69%     74.84% # Number of instructions fetched each cycle (Total)
system.switch_cpus1.fetch.rateDist::6         1499883      1.95%     76.79% # Number of instructions fetched each cycle (Total)
system.switch_cpus1.fetch.rateDist::7          835273      1.09%     77.88% # Number of instructions fetched each cycle (Total)
system.switch_cpus1.fetch.rateDist::8        16995827     22.12%    100.00% # Number of instructions fetched each cycle (Total)
system.switch_cpus1.fetch.rateDist::overflows            0      0.00%    100.00% # Number of instructions fetched each cycle (Total)
system.switch_cpus1.fetch.rateDist::min_value            0                       # Number of instructions fetched each cycle (Total)
system.switch_cpus1.fetch.rateDist::max_value            8                       # Number of instructions fetched each cycle (Total)
system.switch_cpus1.fetch.rateDist::total     76830366                       # Number of instructions fetched each cycle (Total)
system.switch_cpus1.fetch.branchRate         0.360296                       # Number of branch fetches per cycle
system.switch_cpus1.fetch.rate               1.998045                       # Number of inst fetches per cycle
system.switch_cpus1.decode.IdleCycles        29610486                       # Number of cycles decode is idle
system.switch_cpus1.decode.BlockedCycles      5582723                       # Number of cycles decode is blocked
system.switch_cpus1.decode.RunCycles         33078807                       # Number of cycles decode is running
system.switch_cpus1.decode.UnblockCycles       224558                       # Number of cycles decode is unblocking
system.switch_cpus1.decode.SquashCycles       8333787                       # Number of cycles decode is squashing
system.switch_cpus1.decode.BranchResolved      4818871                       # Number of times decode resolved a branch
system.switch_cpus1.decode.BranchMispred        38688                       # Number of times decode detected a branch misprediction
system.switch_cpus1.decode.DecodedInsts     187023819                       # Number of instructions handled by decode
system.switch_cpus1.decode.SquashedInsts        75922                       # Number of squashed instructions handled by decode
system.switch_cpus1.rename.SquashCycles       8333787                       # Number of cycles rename is squashing
system.switch_cpus1.rename.IdleCycles        31780580                       # Number of cycles rename is idle
system.switch_cpus1.rename.BlockCycles        1238966                       # Number of cycles rename is blocking
system.switch_cpus1.rename.serializeStallCycles      1144501                       # count of cycles rename stalled for serializing inst
system.switch_cpus1.rename.RunCycles         31081636                       # Number of cycles rename is running
system.switch_cpus1.rename.UnblockCycles      3250891                       # Number of cycles rename is unblocking
system.switch_cpus1.rename.RenamedInsts     180407939                       # Number of instructions processed by rename
system.switch_cpus1.rename.ROBFullEvents        29720                       # Number of times rename has blocked due to ROB full
system.switch_cpus1.rename.IQFullEvents       1347137                       # Number of times rename has blocked due to IQ full
system.switch_cpus1.rename.LSQFullEvents      1010336                       # Number of times rename has blocked due to LSQ full
system.switch_cpus1.rename.FullRegisterEvents         1094                       # Number of times there has been no free registers
system.switch_cpus1.rename.RenamedOperands    252634516                       # Number of destination operands rename has renamed
system.switch_cpus1.rename.RenameLookups    842170080                       # Number of register rename lookups that rename has made
system.switch_cpus1.rename.int_rename_lookups    842170080                       # Number of integer rename lookups
system.switch_cpus1.rename.CommittedMaps    154796678                       # Number of HB maps that are committed
system.switch_cpus1.rename.UndoneMaps        97837786                       # Number of HB maps that are undone due to squashing
system.switch_cpus1.rename.serializingInsts        36776                       # count of serializing insts renamed
system.switch_cpus1.rename.tempSerializingInsts        20640                       # count of temporary serializing insts renamed
system.switch_cpus1.rename.skidInsts          8917017                       # count of insts added to the skid buffer
system.switch_cpus1.memDep0.insertedLoads     16818921                       # Number of loads inserted to the mem dependence unit.
system.switch_cpus1.memDep0.insertedStores      8557034                       # Number of stores inserted to the mem dependence unit.
system.switch_cpus1.memDep0.conflictingLoads       132097                       # Number of conflicting loads.
system.switch_cpus1.memDep0.conflictingStores      2309261                       # Number of conflicting stores.
system.switch_cpus1.iq.iqInstsAdded         170606268                       # Number of instructions added to the IQ (excludes non-spec)
system.switch_cpus1.iq.iqNonSpecInstsAdded        35395                       # Number of non-speculative instructions added to the IQ
system.switch_cpus1.iq.iqInstsIssued        135546197                       # Number of instructions issued
system.switch_cpus1.iq.iqSquashedInstsIssued       262844                       # Number of squashed instructions issued
system.switch_cpus1.iq.iqSquashedInstsExamined     58970855                       # Number of squashed instructions iterated over during squash; mainly for profiling
system.switch_cpus1.iq.iqSquashedOperandsExamined    179947223                       # Number of squashed operands that are examined and possibly removed from graph
system.switch_cpus1.iq.iqSquashedNonSpecRemoved         5411                       # Number of squashed non-spec instructions that were removed
system.switch_cpus1.iq.issued_per_cycle::samples     76830366                       # Number of insts issued each cycle
system.switch_cpus1.iq.issued_per_cycle::mean     1.764227                       # Number of insts issued each cycle
system.switch_cpus1.iq.issued_per_cycle::stdev     1.890090                       # Number of insts issued each cycle
system.switch_cpus1.iq.issued_per_cycle::underflows            0      0.00%      0.00% # Number of insts issued each cycle
system.switch_cpus1.iq.issued_per_cycle::0     26653176     34.69%     34.69% # Number of insts issued each cycle
system.switch_cpus1.iq.issued_per_cycle::1     16660571     21.68%     56.38% # Number of insts issued each cycle
system.switch_cpus1.iq.issued_per_cycle::2     10622108     13.83%     70.20% # Number of insts issued each cycle
system.switch_cpus1.iq.issued_per_cycle::3      8033740     10.46%     80.66% # Number of insts issued each cycle
system.switch_cpus1.iq.issued_per_cycle::4      6971479      9.07%     89.73% # Number of insts issued each cycle
system.switch_cpus1.iq.issued_per_cycle::5      3569741      4.65%     94.38% # Number of insts issued each cycle
system.switch_cpus1.iq.issued_per_cycle::6      3088737      4.02%     98.40% # Number of insts issued each cycle
system.switch_cpus1.iq.issued_per_cycle::7       573365      0.75%     99.14% # Number of insts issued each cycle
system.switch_cpus1.iq.issued_per_cycle::8       657449      0.86%    100.00% # Number of insts issued each cycle
system.switch_cpus1.iq.issued_per_cycle::overflows            0      0.00%    100.00% # Number of insts issued each cycle
system.switch_cpus1.iq.issued_per_cycle::min_value            0                       # Number of insts issued each cycle
system.switch_cpus1.iq.issued_per_cycle::max_value            8                       # Number of insts issued each cycle
system.switch_cpus1.iq.issued_per_cycle::total     76830366                       # Number of insts issued each cycle
system.switch_cpus1.iq.fu_full::No_OpClass            0      0.00%      0.00% # attempts to use FU when none available
system.switch_cpus1.iq.fu_full::IntAlu         793014     70.94%     70.94% # attempts to use FU when none available
system.switch_cpus1.iq.fu_full::IntMult             7      0.00%     70.94% # attempts to use FU when none available
system.switch_cpus1.iq.fu_full::IntDiv              0      0.00%     70.94% # attempts to use FU when none available
system.switch_cpus1.iq.fu_full::FloatAdd            0      0.00%     70.94% # attempts to use FU when none available
system.switch_cpus1.iq.fu_full::FloatCmp            0      0.00%     70.94% # attempts to use FU when none available
system.switch_cpus1.iq.fu_full::FloatCvt            0      0.00%     70.94% # attempts to use FU when none available
system.switch_cpus1.iq.fu_full::FloatMult            0      0.00%     70.94% # attempts to use FU when none available
system.switch_cpus1.iq.fu_full::FloatDiv            0      0.00%     70.94% # attempts to use FU when none available
system.switch_cpus1.iq.fu_full::FloatSqrt            0      0.00%     70.94% # attempts to use FU when none available
system.switch_cpus1.iq.fu_full::SimdAdd             0      0.00%     70.94% # attempts to use FU when none available
system.switch_cpus1.iq.fu_full::SimdAddAcc            0      0.00%     70.94% # attempts to use FU when none available
system.switch_cpus1.iq.fu_full::SimdAlu             0      0.00%     70.94% # attempts to use FU when none available
system.switch_cpus1.iq.fu_full::SimdCmp             0      0.00%     70.94% # attempts to use FU when none available
system.switch_cpus1.iq.fu_full::SimdCvt             0      0.00%     70.94% # attempts to use FU when none available
system.switch_cpus1.iq.fu_full::SimdMisc            0      0.00%     70.94% # attempts to use FU when none available
system.switch_cpus1.iq.fu_full::SimdMult            0      0.00%     70.94% # attempts to use FU when none available
system.switch_cpus1.iq.fu_full::SimdMultAcc            0      0.00%     70.94% # attempts to use FU when none available
system.switch_cpus1.iq.fu_full::SimdShift            0      0.00%     70.94% # attempts to use FU when none available
system.switch_cpus1.iq.fu_full::SimdShiftAcc            0      0.00%     70.94% # attempts to use FU when none available
system.switch_cpus1.iq.fu_full::SimdSqrt            0      0.00%     70.94% # attempts to use FU when none available
system.switch_cpus1.iq.fu_full::SimdFloatAdd            0      0.00%     70.94% # attempts to use FU when none available
system.switch_cpus1.iq.fu_full::SimdFloatAlu            0      0.00%     70.94% # attempts to use FU when none available
system.switch_cpus1.iq.fu_full::SimdFloatCmp            0      0.00%     70.94% # attempts to use FU when none available
system.switch_cpus1.iq.fu_full::SimdFloatCvt            0      0.00%     70.94% # attempts to use FU when none available
system.switch_cpus1.iq.fu_full::SimdFloatDiv            0      0.00%     70.94% # attempts to use FU when none available
system.switch_cpus1.iq.fu_full::SimdFloatMisc            0      0.00%     70.94% # attempts to use FU when none available
system.switch_cpus1.iq.fu_full::SimdFloatMult            0      0.00%     70.94% # attempts to use FU when none available
system.switch_cpus1.iq.fu_full::SimdFloatMultAcc            0      0.00%     70.94% # attempts to use FU when none available
system.switch_cpus1.iq.fu_full::SimdFloatSqrt            0      0.00%     70.94% # attempts to use FU when none available
system.switch_cpus1.iq.fu_full::MemRead        161797     14.47%     85.41% # attempts to use FU when none available
system.switch_cpus1.iq.fu_full::MemWrite       163078     14.59%    100.00% # attempts to use FU when none available
system.switch_cpus1.iq.fu_full::IprAccess            0      0.00%    100.00% # attempts to use FU when none available
system.switch_cpus1.iq.fu_full::InstPrefetch            0      0.00%    100.00% # attempts to use FU when none available
system.switch_cpus1.iq.FU_type_0::No_OpClass            0      0.00%      0.00% # Type of FU issued
system.switch_cpus1.iq.FU_type_0::IntAlu    112917938     83.31%     83.31% # Type of FU issued
system.switch_cpus1.iq.FU_type_0::IntMult      1928557      1.42%     84.73% # Type of FU issued
system.switch_cpus1.iq.FU_type_0::IntDiv            0      0.00%     84.73% # Type of FU issued
system.switch_cpus1.iq.FU_type_0::FloatAdd            0      0.00%     84.73% # Type of FU issued
system.switch_cpus1.iq.FU_type_0::FloatCmp            0      0.00%     84.73% # Type of FU issued
system.switch_cpus1.iq.FU_type_0::FloatCvt            0      0.00%     84.73% # Type of FU issued
system.switch_cpus1.iq.FU_type_0::FloatMult            0      0.00%     84.73% # Type of FU issued
system.switch_cpus1.iq.FU_type_0::FloatDiv            0      0.00%     84.73% # Type of FU issued
system.switch_cpus1.iq.FU_type_0::FloatSqrt            0      0.00%     84.73% # Type of FU issued
system.switch_cpus1.iq.FU_type_0::SimdAdd            0      0.00%     84.73% # Type of FU issued
system.switch_cpus1.iq.FU_type_0::SimdAddAcc            0      0.00%     84.73% # Type of FU issued
system.switch_cpus1.iq.FU_type_0::SimdAlu            0      0.00%     84.73% # Type of FU issued
system.switch_cpus1.iq.FU_type_0::SimdCmp            0      0.00%     84.73% # Type of FU issued
system.switch_cpus1.iq.FU_type_0::SimdCvt            0      0.00%     84.73% # Type of FU issued
system.switch_cpus1.iq.FU_type_0::SimdMisc            0      0.00%     84.73% # Type of FU issued
system.switch_cpus1.iq.FU_type_0::SimdMult            0      0.00%     84.73% # Type of FU issued
system.switch_cpus1.iq.FU_type_0::SimdMultAcc            0      0.00%     84.73% # Type of FU issued
system.switch_cpus1.iq.FU_type_0::SimdShift            0      0.00%     84.73% # Type of FU issued
system.switch_cpus1.iq.FU_type_0::SimdShiftAcc            0      0.00%     84.73% # Type of FU issued
system.switch_cpus1.iq.FU_type_0::SimdSqrt            0      0.00%     84.73% # Type of FU issued
system.switch_cpus1.iq.FU_type_0::SimdFloatAdd            0      0.00%     84.73% # Type of FU issued
system.switch_cpus1.iq.FU_type_0::SimdFloatAlu            0      0.00%     84.73% # Type of FU issued
system.switch_cpus1.iq.FU_type_0::SimdFloatCmp            0      0.00%     84.73% # Type of FU issued
system.switch_cpus1.iq.FU_type_0::SimdFloatCvt            0      0.00%     84.73% # Type of FU issued
system.switch_cpus1.iq.FU_type_0::SimdFloatDiv            0      0.00%     84.73% # Type of FU issued
system.switch_cpus1.iq.FU_type_0::SimdFloatMisc        14992      0.01%     84.74% # Type of FU issued
system.switch_cpus1.iq.FU_type_0::SimdFloatMult            0      0.00%     84.74% # Type of FU issued
system.switch_cpus1.iq.FU_type_0::SimdFloatMultAcc            0      0.00%     84.74% # Type of FU issued
system.switch_cpus1.iq.FU_type_0::SimdFloatSqrt            0      0.00%     84.74% # Type of FU issued
system.switch_cpus1.iq.FU_type_0::MemRead     13451123      9.92%     94.66% # Type of FU issued
system.switch_cpus1.iq.FU_type_0::MemWrite      7233587      5.34%    100.00% # Type of FU issued
system.switch_cpus1.iq.FU_type_0::IprAccess            0      0.00%    100.00% # Type of FU issued
system.switch_cpus1.iq.FU_type_0::InstPrefetch            0      0.00%    100.00% # Type of FU issued
system.switch_cpus1.iq.FU_type_0::total     135546197                       # Type of FU issued
system.switch_cpus1.iq.rate                  1.731238                       # Inst issue rate
system.switch_cpus1.iq.fu_busy_cnt            1117896                       # FU busy when requested
system.switch_cpus1.iq.fu_busy_rate          0.008247                       # FU busy rate (busy events/executed inst)
system.switch_cpus1.iq.int_inst_queue_reads    349303498                       # Number of integer instruction queue reads
system.switch_cpus1.iq.int_inst_queue_writes    229613063                       # Number of integer instruction queue writes
system.switch_cpus1.iq.int_inst_queue_wakeup_accesses    132081779                       # Number of integer instruction queue wakeup accesses
system.switch_cpus1.iq.fp_inst_queue_reads            0                       # Number of floating instruction queue reads
system.switch_cpus1.iq.fp_inst_queue_writes            0                       # Number of floating instruction queue writes
system.switch_cpus1.iq.fp_inst_queue_wakeup_accesses            0                       # Number of floating instruction queue wakeup accesses
system.switch_cpus1.iq.int_alu_accesses     136664093                       # Number of integer alu accesses
system.switch_cpus1.iq.fp_alu_accesses              0                       # Number of floating point alu accesses
system.switch_cpus1.iew.lsq.thread0.forwLoads       506805                       # Number of loads that had data forwarded from stores
system.switch_cpus1.iew.lsq.thread0.invAddrLoads            0                       # Number of loads ignored due to an invalid address
system.switch_cpus1.iew.lsq.thread0.squashedLoads      6632398                       # Number of loads squashed
system.switch_cpus1.iew.lsq.thread0.ignoredResponses         2608                       # Number of memory responses ignored because the instruction is squashed
system.switch_cpus1.iew.lsq.thread0.memOrderViolation          548                       # Number of memory ordering violations
system.switch_cpus1.iew.lsq.thread0.squashedStores      2186714                       # Number of stores squashed
system.switch_cpus1.iew.lsq.thread0.invAddrSwpfs            0                       # Number of software prefetches ignored due to an invalid address
system.switch_cpus1.iew.lsq.thread0.blockedLoads            0                       # Number of blocked loads due to partial load-store forwarding
system.switch_cpus1.iew.lsq.thread0.rescheduledLoads            1                       # Number of loads that were rescheduled
system.switch_cpus1.iew.lsq.thread0.cacheBlocked            0                       # Number of times an access to memory failed due to the cache being blocked
system.switch_cpus1.iew.iewIdleCycles               0                       # Number of cycles IEW is idle
system.switch_cpus1.iew.iewSquashCycles       8333787                       # Number of cycles IEW is squashing
system.switch_cpus1.iew.iewBlockCycles         492424                       # Number of cycles IEW is blocking
system.switch_cpus1.iew.iewUnblockCycles        73163                       # Number of cycles IEW is unblocking
system.switch_cpus1.iew.iewDispatchedInsts    170641664                       # Number of instructions dispatched to IQ
system.switch_cpus1.iew.iewDispSquashedInsts       375608                       # Number of squashed instructions skipped by dispatch
system.switch_cpus1.iew.iewDispLoadInsts     16818921                       # Number of dispatched load instructions
system.switch_cpus1.iew.iewDispStoreInsts      8557034                       # Number of dispatched store instructions
system.switch_cpus1.iew.iewDispNonSpecInsts        20403                       # Number of dispatched non-speculative instructions
system.switch_cpus1.iew.iewIQFullEvents         65404                       # Number of times the IQ has become full, causing a stall
system.switch_cpus1.iew.iewLSQFullEvents            0                       # Number of times the LSQ has become full, causing a stall
system.switch_cpus1.iew.memOrderViolationEvents          548                       # Number of memory order violations
system.switch_cpus1.iew.predictedTakenIncorrect      1149765                       # Number of branches that were predicted taken incorrectly
system.switch_cpus1.iew.predictedNotTakenIncorrect      1082465                       # Number of branches that were predicted not taken incorrectly
system.switch_cpus1.iew.branchMispredicts      2232230                       # Number of branch mispredicts detected at execute
system.switch_cpus1.iew.iewExecutedInsts    133377576                       # Number of executed instructions
system.switch_cpus1.iew.iewExecLoadInsts     12617861                       # Number of load instructions executed
system.switch_cpus1.iew.iewExecSquashedInsts      2168619                       # Number of squashed instructions skipped in execute
system.switch_cpus1.iew.exec_swp                    0                       # number of swp insts executed
system.switch_cpus1.iew.exec_nop                    1                       # number of nop insts executed
system.switch_cpus1.iew.exec_refs            19650405                       # number of memory reference insts executed
system.switch_cpus1.iew.exec_branches        18812724                       # Number of branches executed
system.switch_cpus1.iew.exec_stores           7032544                       # Number of stores executed
system.switch_cpus1.iew.exec_rate            1.703540                       # Inst execution rate
system.switch_cpus1.iew.wb_sent             132169615                       # cumulative count of insts sent to commit
system.switch_cpus1.iew.wb_count            132081779                       # cumulative count of insts written-back
system.switch_cpus1.iew.wb_producers         86062676                       # num instructions producing a value
system.switch_cpus1.iew.wb_consumers        242970845                       # num instructions consuming a value
system.switch_cpus1.iew.wb_penalized                0                       # number of instrctions required to write to 'other' IQ
system.switch_cpus1.iew.wb_rate              1.686989                       # insts written-back per cycle
system.switch_cpus1.iew.wb_fanout            0.354210                       # average fanout of values written-back
system.switch_cpus1.iew.wb_penalized_rate            0                       # fraction of instructions written-back that wrote to 'other' IQ
system.switch_cpus1.commit.commitCommittedInsts     90683006                       # The number of committed instructions
system.switch_cpus1.commit.commitCommittedOps    111365714                       # The number of committed instructions
system.switch_cpus1.commit.commitSquashedInsts     59276656                       # The number of squashed insts skipped by commit
system.switch_cpus1.commit.commitNonSpecStalls        29984                       # The number of times commit has been forced to stall to communicate backwards
system.switch_cpus1.commit.branchMispredicts      1929744                       # The number of times a branch was mispredicted
[...]
system.cpu3.icache.ReadReq_avg_miss_latency::total        59616                       # average ReadReq miss latency
system.cpu3.icache.demand_avg_miss_latency::switch_cpus3.inst        59616                       # average overall miss latency
system.cpu3.icache.demand_avg_miss_latency::total        59616                       # average overall miss latency
system.cpu3.icache.overall_avg_miss_latency::switch_cpus3.inst        59616                       # average overall miss latency
system.cpu3.icache.overall_avg_miss_latency::total        59616                       # average overall miss latency
system.cpu3.icache.blocked_cycles::no_mshrs            0                       # number of cycles access was blocked
system.cpu3.icache.blocked_cycles::no_targets            0                       # number of cycles access was blocked
system.cpu3.icache.blocked::no_mshrs                0                       # number of cycles access was blocked
system.cpu3.icache.blocked::no_targets              0                       # number of cycles access was blocked
system.cpu3.icache.avg_blocked_cycles::no_mshrs          nan                       # average number of cycles each access was blocked
system.cpu3.icache.avg_blocked_cycles::no_targets          nan                       # average number of cycles each access was blocked
system.cpu3.icache.fast_writes                      0                       # number of fast writes performed
system.cpu3.icache.cache_copies                     0                       # number of cache copies performed
system.cpu3.icache.ReadReq_mshr_hits::switch_cpus3.inst            7                       # number of ReadReq MSHR hits
system.cpu3.icache.ReadReq_mshr_hits::total            7                       # number of ReadReq MSHR hits
system.cpu3.icache.demand_mshr_hits::switch_cpus3.inst            7                       # number of demand (read+write) MSHR hits
system.cpu3.icache.demand_mshr_hits::total            7                       # number of demand (read+write) MSHR hits
system.cpu3.icache.overall_mshr_hits::switch_cpus3.inst            7                       # number of overall MSHR hits
system.cpu3.icache.overall_mshr_hits::total            7                       # number of overall MSHR hits
system.cpu3.icache.ReadReq_mshr_misses::switch_cpus3.inst           13                       # number of ReadReq MSHR misses
system.cpu3.icache.ReadReq_mshr_misses::total           13                       # number of ReadReq MSHR misses
system.cpu3.icache.demand_mshr_misses::switch_cpus3.inst           13                       # number of demand (read+write) MSHR misses
system.cpu3.icache.demand_mshr_misses::total           13                       # number of demand (read+write) MSHR misses
system.cpu3.icache.overall_mshr_misses::switch_cpus3.inst           13                       # number of overall MSHR misses
system.cpu3.icache.overall_mshr_misses::total           13                       # number of overall MSHR misses
system.cpu3.icache.ReadReq_mshr_miss_latency::switch_cpus3.inst       807576                       # number of ReadReq MSHR miss cycles
system.cpu3.icache.ReadReq_mshr_miss_latency::total       807576                       # number of ReadReq MSHR miss cycles
system.cpu3.icache.demand_mshr_miss_latency::switch_cpus3.inst       807576                       # number of demand (read+write) MSHR miss cycles
system.cpu3.icache.demand_mshr_miss_latency::total       807576                       # number of demand (read+write) MSHR miss cycles
system.cpu3.icache.overall_mshr_miss_latency::switch_cpus3.inst       807576                       # number of overall MSHR miss cycles
system.cpu3.icache.overall_mshr_miss_latency::total       807576                       # number of overall MSHR miss cycles
system.cpu3.icache.ReadReq_mshr_miss_rate::switch_cpus3.inst     0.000001                       # mshr miss rate for ReadReq accesses
system.cpu3.icache.ReadReq_mshr_miss_rate::total     0.000001                       # mshr miss rate for ReadReq accesses
system.cpu3.icache.demand_mshr_miss_rate::switch_cpus3.inst     0.000001                       # mshr miss rate for demand accesses
system.cpu3.icache.demand_mshr_miss_rate::total     0.000001                       # mshr miss rate for demand accesses
system.cpu3.icache.overall_mshr_miss_rate::switch_cpus3.inst     0.000001                       # mshr miss rate for overall accesses
system.cpu3.icache.overall_mshr_miss_rate::total     0.000001                       # mshr miss rate for overall accesses
system.cpu3.icache.ReadReq_avg_mshr_miss_latency::switch_cpus3.inst 62121.230769                       # average ReadReq mshr miss latency
system.cpu3.icache.ReadReq_avg_mshr_miss_latency::total 62121.230769                       # average ReadReq mshr miss latency
system.cpu3.icache.demand_avg_mshr_miss_latency::switch_cpus3.inst 62121.230769                       # average overall mshr miss latency
system.cpu3.icache.demand_avg_mshr_miss_latency::total 62121.230769                       # average overall mshr miss latency
system.cpu3.icache.overall_avg_mshr_miss_latency::switch_cpus3.inst 62121.230769                       # average overall mshr miss latency
system.cpu3.icache.overall_avg_mshr_miss_latency::total 62121.230769                       # average overall mshr miss latency
system.cpu3.icache.no_allocate_misses               0                       # Number of misses that were no-allocate
system.cpu3.dcache.replacements                 47826                       # number of replacements
system.cpu3.dcache.tagsinuse                      256                       # Cycle average of tags in use
system.cpu3.dcache.total_refs               185302348                       # Total number of references to valid blocks.
system.cpu3.dcache.sampled_refs                 48082                       # Sample count of references to valid blocks.
system.cpu3.dcache.avg_refs               3853.881868                       # Average number of references to valid blocks.
system.cpu3.dcache.warmup_cycle                     0                       # Cycle when the warmup percentage was hit.
system.cpu3.dcache.occ_blocks::switch_cpus3.data   233.552696                       # Average occupied blocks per requestor
system.cpu3.dcache.occ_blocks::cpu3.data    22.447304                       # Average occupied blocks per requestor
system.cpu3.dcache.occ_percent::switch_cpus3.data     0.912315                       # Average percentage of cache occupancy
system.cpu3.dcache.occ_percent::cpu3.data     0.087685                       # Average percentage of cache occupancy
system.cpu3.dcache.occ_percent::total               1                       # Average percentage of cache occupancy
system.cpu3.dcache.ReadReq_hits::switch_cpus3.data      9586715                       # number of ReadReq hits
system.cpu3.dcache.ReadReq_hits::total        9586715                       # number of ReadReq hits
system.cpu3.dcache.WriteReq_hits::switch_cpus3.data      6602887                       # number of WriteReq hits
system.cpu3.dcache.WriteReq_hits::total       6602887                       # number of WriteReq hits
system.cpu3.dcache.LoadLockedReq_hits::switch_cpus3.data        16247                       # number of LoadLockedReq hits
system.cpu3.dcache.LoadLockedReq_hits::total        16247                       # number of LoadLockedReq hits
system.cpu3.dcache.StoreCondReq_hits::switch_cpus3.data        15320                       # number of StoreCondReq hits
system.cpu3.dcache.StoreCondReq_hits::total        15320                       # number of StoreCondReq hits
system.cpu3.dcache.demand_hits::switch_cpus3.data     16189602                       # number of demand (read+write) hits
system.cpu3.dcache.demand_hits::total        16189602                       # number of demand (read+write) hits
system.cpu3.dcache.overall_hits::switch_cpus3.data     16189602                       # number of overall hits
system.cpu3.dcache.overall_hits::total       16189602                       # number of overall hits
system.cpu3.dcache.ReadReq_misses::switch_cpus3.data       122496                       # number of ReadReq misses
system.cpu3.dcache.ReadReq_misses::total       122496                       # number of ReadReq misses
system.cpu3.dcache.WriteReq_misses::switch_cpus3.data         2566                       # number of WriteReq misses
system.cpu3.dcache.WriteReq_misses::total         2566                       # number of WriteReq misses
system.cpu3.dcache.demand_misses::switch_cpus3.data       125062                       # number of demand (read+write) misses
system.cpu3.dcache.demand_misses::total        125062                       # number of demand (read+write) misses
system.cpu3.dcache.overall_misses::switch_cpus3.data       125062                       # number of overall misses
system.cpu3.dcache.overall_misses::total       125062                       # number of overall misses
system.cpu3.dcache.ReadReq_miss_latency::switch_cpus3.data   4461524589                       # number of ReadReq miss cycles
system.cpu3.dcache.ReadReq_miss_latency::total   4461524589                       # number of ReadReq miss cycles
system.cpu3.dcache.WriteReq_miss_latency::switch_cpus3.data    173014822                       # number of WriteReq miss cycles
system.cpu3.dcache.WriteReq_miss_latency::total    173014822                       # number of WriteReq miss cycles
system.cpu3.dcache.demand_miss_latency::switch_cpus3.data   4634539411                       # number of demand (read+write) miss cycles
system.cpu3.dcache.demand_miss_latency::total   4634539411                       # number of demand (read+write) miss cycles
system.cpu3.dcache.overall_miss_latency::switch_cpus3.data   4634539411                       # number of overall miss cycles
system.cpu3.dcache.overall_miss_latency::total   4634539411                       # number of overall miss cycles
system.cpu3.dcache.ReadReq_accesses::switch_cpus3.data      9709211                       # number of ReadReq accesses(hits+misses)
system.cpu3.dcache.ReadReq_accesses::total      9709211                       # number of ReadReq accesses(hits+misses)
system.cpu3.dcache.WriteReq_accesses::switch_cpus3.data      6605453                       # number of WriteReq accesses(hits+misses)
system.cpu3.dcache.WriteReq_accesses::total      6605453                       # number of WriteReq accesses(hits+misses)
system.cpu3.dcache.LoadLockedReq_accesses::switch_cpus3.data        16247                       # number of LoadLockedReq accesses(hits+misses)
system.cpu3.dcache.LoadLockedReq_accesses::total        16247                       # number of LoadLockedReq accesses(hits+misses)
system.cpu3.dcache.StoreCondReq_accesses::switch_cpus3.data        15320                       # number of StoreCondReq accesses(hits+misses)
system.cpu3.dcache.StoreCondReq_accesses::total        15320                       # number of StoreCondReq accesses(hits+misses)
system.cpu3.dcache.demand_accesses::switch_cpus3.data     16314664                       # number of demand (read+write) accesses
system.cpu3.dcache.demand_accesses::total     16314664                       # number of demand (read+write) accesses
system.cpu3.dcache.overall_accesses::switch_cpus3.data     16314664                       # number of overall (read+write) accesses
system.cpu3.dcache.overall_accesses::total     16314664                       # number of overall (read+write) accesses
system.cpu3.dcache.ReadReq_miss_rate::switch_cpus3.data     0.012616                       # miss rate for ReadReq accesses
system.cpu3.dcache.ReadReq_miss_rate::total     0.012616                       # miss rate for ReadReq accesses
system.cpu3.dcache.WriteReq_miss_rate::switch_cpus3.data     0.000388                       # miss rate for WriteReq accesses
system.cpu3.dcache.WriteReq_miss_rate::total     0.000388                       # miss rate for WriteReq accesses
system.cpu3.dcache.demand_miss_rate::switch_cpus3.data     0.007666                       # miss rate for demand accesses
system.cpu3.dcache.demand_miss_rate::total     0.007666                       # miss rate for demand accesses
system.cpu3.dcache.overall_miss_rate::switch_cpus3.data     0.007666                       # miss rate for overall accesses
system.cpu3.dcache.overall_miss_rate::total     0.007666                       # miss rate for overall accesses
system.cpu3.dcache.ReadReq_avg_miss_latency::switch_cpus3.data 36421.798173                       # average ReadReq miss latency
system.cpu3.dcache.ReadReq_avg_miss_latency::total 36421.798173                       # average ReadReq miss latency
system.cpu3.dcache.WriteReq_avg_miss_latency::switch_cpus3.data 67425.885425                       # average WriteReq miss latency
system.cpu3.dcache.WriteReq_avg_miss_latency::total 67425.885425                       # average WriteReq miss latency
system.cpu3.dcache.demand_avg_miss_latency::switch_cpus3.data 37057.934552                       # average overall miss latency
system.cpu3.dcache.demand_avg_miss_latency::total 37057.934552                       # average overall miss latency
system.cpu3.dcache.overall_avg_miss_latency::switch_cpus3.data 37057.934552                       # average overall miss latency
system.cpu3.dcache.overall_avg_miss_latency::total 37057.934552                       # average overall miss latency
system.cpu3.dcache.blocked_cycles::no_mshrs            0                       # number of cycles access was blocked
system.cpu3.dcache.blocked_cycles::no_targets       746039                       # number of cycles access was blocked
system.cpu3.dcache.blocked::no_mshrs                0                       # number of cycles access was blocked
system.cpu3.dcache.blocked::no_targets             17                       # number of cycles access was blocked
system.cpu3.dcache.avg_blocked_cycles::no_mshrs          nan                       # average number of cycles each access was blocked
system.cpu3.dcache.avg_blocked_cycles::no_targets 43884.647059                       # average number of cycles each access was blocked
system.cpu3.dcache.fast_writes                      0                       # number of fast writes performed
system.cpu3.dcache.cache_copies                     0                       # number of cache copies performed
system.cpu3.dcache.writebacks::writebacks        21607                       # number of writebacks
system.cpu3.dcache.writebacks::total            21607                       # number of writebacks
system.cpu3.dcache.ReadReq_mshr_hits::switch_cpus3.data        74671                       # number of ReadReq MSHR hits
system.cpu3.dcache.ReadReq_mshr_hits::total        74671                       # number of ReadReq MSHR hits
system.cpu3.dcache.WriteReq_mshr_hits::switch_cpus3.data         2565                       # number of WriteReq MSHR hits
system.cpu3.dcache.WriteReq_mshr_hits::total         2565                       # number of WriteReq MSHR hits
system.cpu3.dcache.demand_mshr_hits::switch_cpus3.data        77236                       # number of demand (read+write) MSHR hits
system.cpu3.dcache.demand_mshr_hits::total        77236                       # number of demand (read+write) MSHR hits
system.cpu3.dcache.overall_mshr_hits::switch_cpus3.data        77236                       # number of overall MSHR hits
system.cpu3.dcache.overall_mshr_hits::total        77236                       # number of overall MSHR hits
system.cpu3.dcache.ReadReq_mshr_misses::switch_cpus3.data        47825                       # number of ReadReq MSHR misses
system.cpu3.dcache.ReadReq_mshr_misses::total        47825                       # number of ReadReq MSHR misses
system.cpu3.dcache.WriteReq_mshr_misses::switch_cpus3.data            1                       # number of WriteReq MSHR misses
system.cpu3.dcache.WriteReq_mshr_misses::total            1                       # number of WriteReq MSHR misses
system.cpu3.dcache.demand_mshr_misses::switch_cpus3.data        47826                       # number of demand (read+write) MSHR misses
system.cpu3.dcache.demand_mshr_misses::total        47826                       # number of demand (read+write) MSHR misses
system.cpu3.dcache.overall_mshr_misses::switch_cpus3.data        47826                       # number of overall MSHR misses
system.cpu3.dcache.overall_mshr_misses::total        47826                       # number of overall MSHR misses
system.cpu3.dcache.ReadReq_mshr_miss_latency::switch_cpus3.data    908672117                       # number of ReadReq MSHR miss cycles
system.cpu3.dcache.ReadReq_mshr_miss_latency::total    908672117                       # number of ReadReq MSHR miss cycles
system.cpu3.dcache.WriteReq_mshr_miss_latency::switch_cpus3.data        47616                       # number of WriteReq MSHR miss cycles
system.cpu3.dcache.WriteReq_mshr_miss_latency::total        47616                       # number of WriteReq MSHR miss cycles
system.cpu3.dcache.demand_mshr_miss_latency::switch_cpus3.data    908719733                       # number of demand (read+write) MSHR miss cycles
system.cpu3.dcache.demand_mshr_miss_latency::total    908719733                       # number of demand (read+write) MSHR miss cycles
system.cpu3.dcache.overall_mshr_miss_latency::switch_cpus3.data    908719733                       # number of overall MSHR miss cycles
system.cpu3.dcache.overall_mshr_miss_latency::total    908719733                       # number of overall MSHR miss cycles
system.cpu3.dcache.ReadReq_mshr_miss_rate::switch_cpus3.data     0.004926                       # mshr miss rate for ReadReq accesses
system.cpu3.dcache.ReadReq_mshr_miss_rate::total     0.004926                       # mshr miss rate for ReadReq accesses
system.cpu3.dcache.WriteReq_mshr_miss_rate::switch_cpus3.data     0.000000                       # mshr miss rate for WriteReq accesses
system.cpu3.dcache.WriteReq_mshr_miss_rate::total     0.000000                       # mshr miss rate for WriteReq accesses
system.cpu3.dcache.demand_mshr_miss_rate::switch_cpus3.data     0.002931                       # mshr miss rate for demand accesses
system.cpu3.dcache.demand_mshr_miss_rate::total     0.002931                       # mshr miss rate for demand accesses
system.cpu3.dcache.overall_mshr_miss_rate::switch_cpus3.data     0.002931                       # mshr miss rate for overall accesses
system.cpu3.dcache.overall_mshr_miss_rate::total     0.002931                       # mshr miss rate for overall accesses
system.cpu3.dcache.ReadReq_avg_mshr_miss_latency::switch_cpus3.data 18999.939718                       # average ReadReq mshr miss latency
system.cpu3.dcache.ReadReq_avg_mshr_miss_latency::total 18999.939718                       # average ReadReq mshr miss latency
system.cpu3.dcache.WriteReq_avg_mshr_miss_latency::switch_cpus3.data        47616                       # average WriteReq mshr miss latency
system.cpu3.dcache.WriteReq_avg_mshr_miss_latency::total        47616                       # average WriteReq mshr miss latency
system.cpu3.dcache.demand_avg_mshr_miss_latency::switch_cpus3.data 19000.538055                       # average overall mshr miss latency
system.cpu3.dcache.demand_avg_mshr_miss_latency::total 19000.538055                       # average overall mshr miss latency
system.cpu3.dcache.overall_avg_mshr_miss_latency::switch_cpus3.data 19000.538055                       # average overall mshr miss latency
system.cpu3.dcache.overall_avg_mshr_miss_latency::total 19000.538055                       # average overall mshr miss latency
system.cpu3.dcache.no_allocate_misses               0                       # Number of misses that were no-allocate

---------- End Simulation Statistics   ----------
