
---------- Begin Simulation Statistics ----------
final_tick                               2277542430399                       # Number of ticks from beginning of simulation (restored from checkpoints and never reset)
host_inst_rate                                 132228                       # Simulator instruction rate (inst/s)
host_mem_usage                              134421764                       # Number of bytes of host memory used
host_op_rate                                   154889                       # Simulator op (including micro ops) rate (op/s)
host_seconds                                101090.16                       # Real time elapsed on the host
host_tick_rate                               13053554                       # Simulator tick rate (ticks/s)
sim_freq                                 1000000000000                       # Frequency of simulated ticks
sim_insts                                 13366980597                       # Number of instructions simulated
sim_ops                                   15657778248                       # Number of ops (including micro ops) simulated
sim_seconds                                  1.319586                       # Number of seconds simulated
sim_ticks                                1319585938224                       # Number of ticks simulated
system.cpu0.committedInsts                          0                       # Number of instructions committed
system.cpu0.committedOps                            0                       # Number of ops (including micro ops) committed
system.cpu0.dtb.accesses                            0                       # DTB accesses
system.cpu0.dtb.align_faults                        0                       # Number of TLB faults due to alignment restrictions
system.cpu0.dtb.domain_faults                       0                       # Number of TLB faults due to domain restrictions
system.cpu0.dtb.flush_entries                       0                       # Number of entries that have been flushed from TLB
system.cpu0.dtb.flush_tlb                           0                       # Number of times complete TLB was flushed
system.cpu0.dtb.flush_tlb_asid                      0                       # Number of times TLB was flushed by ASID
system.cpu0.dtb.flush_tlb_mva                       0                       # Number of times TLB was flushed by MVA
system.cpu0.dtb.flush_tlb_mva_asid                  0                       # Number of times TLB was flushed by MVA & ASID
system.cpu0.dtb.hits                                0                       # DTB hits
system.cpu0.dtb.inst_accesses                       0                       # ITB inst accesses
system.cpu0.dtb.inst_hits                           0                       # ITB inst hits
system.cpu0.dtb.inst_misses                         0                       # ITB inst misses
system.cpu0.dtb.misses                              0                       # DTB misses
system.cpu0.dtb.perms_faults                        0                       # Number of TLB faults due to permissions restrictions
system.cpu0.dtb.prefetch_faults                     0                       # Number of TLB faults due to prefetch
system.cpu0.dtb.read_accesses                       0                       # DTB read accesses
system.cpu0.dtb.read_hits                           0                       # DTB read hits
system.cpu0.dtb.read_misses                         0                       # DTB read misses
system.cpu0.dtb.stage2_mmu.stage2_tlb.accesses            0                       # DTB accesses
system.cpu0.dtb.stage2_mmu.stage2_tlb.align_faults            0                       # Number of TLB faults due to alignment restrictions
system.cpu0.dtb.stage2_mmu.stage2_tlb.domain_faults            0                       # Number of TLB faults due to domain restrictions
system.cpu0.dtb.stage2_mmu.stage2_tlb.flush_entries            0                       # Number of entries that have been flushed from TLB
system.cpu0.dtb.stage2_mmu.stage2_tlb.flush_tlb            0                       # Number of times complete TLB was flushed
system.cpu0.dtb.stage2_mmu.stage2_tlb.flush_tlb_asid            0                       # Number of times TLB was flushed by ASID
system.cpu0.dtb.stage2_mmu.stage2_tlb.flush_tlb_mva            0                       # Number of times TLB was flushed by MVA
system.cpu0.dtb.stage2_mmu.stage2_tlb.flush_tlb_mva_asid            0                       # Number of times TLB was flushed by MVA & ASID
system.cpu0.dtb.stage2_mmu.stage2_tlb.hits            0                       # DTB hits
system.cpu0.dtb.stage2_mmu.stage2_tlb.inst_accesses            0                       # ITB inst accesses
system.cpu0.dtb.stage2_mmu.stage2_tlb.inst_hits            0                       # ITB inst hits
system.cpu0.dtb.stage2_mmu.stage2_tlb.inst_misses            0                       # ITB inst misses
system.cpu0.dtb.stage2_mmu.stage2_tlb.misses            0                       # DTB misses
system.cpu0.dtb.stage2_mmu.stage2_tlb.perms_faults            0                       # Number of TLB faults due to permissions restrictions
system.cpu0.dtb.stage2_mmu.stage2_tlb.prefetch_faults            0                       # Number of TLB faults due to prefetch
system.cpu0.dtb.stage2_mmu.stage2_tlb.read_accesses            0                       # DTB read accesses
system.cpu0.dtb.stage2_mmu.stage2_tlb.read_hits            0                       # DTB read hits
system.cpu0.dtb.stage2_mmu.stage2_tlb.read_misses            0                       # DTB read misses
system.cpu0.dtb.stage2_mmu.stage2_tlb.walker.walkRequestOrigin_Requested::Data            0                       # Table walker requests started/completed, data/inst
system.cpu0.dtb.stage2_mmu.stage2_tlb.walker.walkRequestOrigin_Requested::Inst            0                       # Table walker requests started/completed, data/inst
system.cpu0.dtb.stage2_mmu.stage2_tlb.walker.walkRequestOrigin_Requested::total            0                       # Table walker requests started/completed, data/inst
system.cpu0.dtb.stage2_mmu.stage2_tlb.walker.walkRequestOrigin_Completed::Data            0                       # Table walker requests started/completed, data/inst
system.cpu0.dtb.stage2_mmu.stage2_tlb.walker.walkRequestOrigin_Completed::Inst            0                       # Table walker requests started/completed, data/inst
system.cpu0.dtb.stage2_mmu.stage2_tlb.walker.walkRequestOrigin_Completed::total            0                       # Table walker requests started/completed, data/inst
system.cpu0.dtb.stage2_mmu.stage2_tlb.walker.walkRequestOrigin::total            0                       # Table walker requests started/completed, data/inst
system.cpu0.dtb.stage2_mmu.stage2_tlb.walker.walks            0                       # Table walker walks requested
system.cpu0.dtb.stage2_mmu.stage2_tlb.write_accesses            0                       # DTB write accesses
system.cpu0.dtb.stage2_mmu.stage2_tlb.write_hits            0                       # DTB write hits
system.cpu0.dtb.stage2_mmu.stage2_tlb.write_misses            0                       # DTB write misses
system.cpu0.dtb.walker.walkRequestOrigin_Requested::Data            0                       # Table walker requests started/completed, data/inst
system.cpu0.dtb.walker.walkRequestOrigin_Requested::Inst            0                       # Table walker requests started/completed, data/inst
system.cpu0.dtb.walker.walkRequestOrigin_Requested::total            0                       # Table walker requests started/completed, data/inst
system.cpu0.dtb.walker.walkRequestOrigin_Completed::Data            0                       # Table walker requests started/completed, data/inst
system.cpu0.dtb.walker.walkRequestOrigin_Completed::Inst            0                       # Table walker requests started/completed, data/inst
system.cpu0.dtb.walker.walkRequestOrigin_Completed::total            0                       # Table walker requests started/completed, data/inst
system.cpu0.dtb.walker.walkRequestOrigin::total            0                       # Table walker requests started/completed, data/inst
system.cpu0.dtb.walker.walks                        0                       # Table walker walks requested
system.cpu0.dtb.write_accesses                      0                       # DTB write accesses
system.cpu0.dtb.write_hits                          0                       # DTB write hits
system.cpu0.dtb.write_misses                        0                       # DTB write misses
system.cpu0.idle_fraction                           0                       # Percentage of idle cycles
system.cpu0.itb.accesses                            0                       # DTB accesses
system.cpu0.itb.align_faults                        0                       # Number of TLB faults due to alignment restrictions
system.cpu0.itb.domain_faults                       0                       # Number of TLB faults due to domain restrictions
system.cpu0.itb.flush_entries                       0                       # Number of entries that have been flushed from TLB
system.cpu0.itb.flush_tlb                           0                       # Number of times complete TLB was flushed
system.cpu0.itb.flush_tlb_asid                      0                       # Number of times TLB was flushed by ASID
system.cpu0.itb.flush_tlb_mva                       0                       # Number of times TLB was flushed by MVA
system.cpu0.itb.flush_tlb_mva_asid                  0                       # Number of times TLB was flushed by MVA & ASID
system.cpu0.itb.hits                                0                       # DTB hits
system.cpu0.itb.inst_accesses                       0                       # ITB inst accesses
system.cpu0.itb.inst_hits                           0                       # ITB inst hits
system.cpu0.itb.inst_misses                         0                       # ITB inst misses
system.cpu0.itb.misses                              0                       # DTB misses
system.cpu0.itb.perms_faults                        0                       # Number of TLB faults due to permissions restrictions
system.cpu0.itb.prefetch_faults                     0                       # Number of TLB faults due to prefetch
system.cpu0.itb.read_accesses                       0                       # DTB read accesses
system.cpu0.itb.read_hits                           0                       # DTB read hits
system.cpu0.itb.read_misses                         0                       # DTB read misses
system.cpu0.itb.stage2_mmu.stage2_tlb.accesses            0                       # DTB accesses
system.cpu0.itb.stage2_mmu.stage2_tlb.align_faults            0                       # Number of TLB faults due to alignment restrictions
system.cpu0.itb.stage2_mmu.stage2_tlb.domain_faults            0                       # Number of TLB faults due to domain restrictions
system.cpu0.itb.stage2_mmu.stage2_tlb.flush_entries            0                       # Number of entries that have been flushed from TLB
system.cpu0.itb.stage2_mmu.stage2_tlb.flush_tlb            0                       # Number of times complete TLB was flushed
system.cpu0.itb.stage2_mmu.stage2_tlb.flush_tlb_asid            0                       # Number of times TLB was flushed by ASID
system.cpu0.itb.stage2_mmu.stage2_tlb.flush_tlb_mva            0                       # Number of times TLB was flushed by MVA
system.cpu0.itb.stage2_mmu.stage2_tlb.flush_tlb_mva_asid            0                       # Number of times TLB was flushed by MVA & ASID
system.cpu0.itb.stage2_mmu.stage2_tlb.hits            0                       # DTB hits
system.cpu0.itb.stage2_mmu.stage2_tlb.inst_accesses            0                       # ITB inst accesses
system.cpu0.itb.stage2_mmu.stage2_tlb.inst_hits            0                       # ITB inst hits
system.cpu0.itb.stage2_mmu.stage2_tlb.inst_misses            0                       # ITB inst misses
system.cpu0.itb.stage2_mmu.stage2_tlb.misses            0                       # DTB misses
system.cpu0.itb.stage2_mmu.stage2_tlb.perms_faults            0                       # Number of TLB faults due to permissions restrictions
system.cpu0.itb.stage2_mmu.stage2_tlb.prefetch_faults            0                       # Number of TLB faults due to prefetch
system.cpu0.itb.stage2_mmu.stage2_tlb.read_accesses            0                       # DTB read accesses
system.cpu0.itb.stage2_mmu.stage2_tlb.read_hits            0                       # DTB read hits
system.cpu0.itb.stage2_mmu.stage2_tlb.read_misses            0                       # DTB read misses
system.cpu0.itb.stage2_mmu.stage2_tlb.walker.walkRequestOrigin_Requested::Data            0                       # Table walker requests started/completed, data/inst
system.cpu0.itb.stage2_mmu.stage2_tlb.walker.walkRequestOrigin_Requested::Inst            0                       # Table walker requests started/completed, data/inst
system.cpu0.itb.stage2_mmu.stage2_tlb.walker.walkRequestOrigin_Requested::total            0                       # Table walker requests started/completed, data/inst
system.cpu0.itb.stage2_mmu.stage2_tlb.walker.walkRequestOrigin_Completed::Data            0                       # Table walker requests started/completed, data/inst
system.cpu0.itb.stage2_mmu.stage2_tlb.walker.walkRequestOrigin_Completed::Inst            0                       # Table walker requests started/completed, data/inst
system.cpu0.itb.stage2_mmu.stage2_tlb.walker.walkRequestOrigin_Completed::total            0                       # Table walker requests started/completed, data/inst
system.cpu0.itb.stage2_mmu.stage2_tlb.walker.walkRequestOrigin::total            0                       # Table walker requests started/completed, data/inst
system.cpu0.itb.stage2_mmu.stage2_tlb.walker.walks            0                       # Table walker walks requested
system.cpu0.itb.stage2_mmu.stage2_tlb.write_accesses            0                       # DTB write accesses
system.cpu0.itb.stage2_mmu.stage2_tlb.write_hits            0                       # DTB write hits
system.cpu0.itb.stage2_mmu.stage2_tlb.write_misses            0                       # DTB write misses
system.cpu0.itb.walker.walkRequestOrigin_Requested::Data            0                       # Table walker requests started/completed, data/inst
system.cpu0.itb.walker.walkRequestOrigin_Requested::Inst            0                       # Table walker requests started/completed, data/inst
system.cpu0.itb.walker.walkRequestOrigin_Requested::total            0                       # Table walker requests started/completed, data/inst
system.cpu0.itb.walker.walkRequestOrigin_Completed::Data            0                       # Table walker requests started/completed, data/inst
system.cpu0.itb.walker.walkRequestOrigin_Completed::Inst            0                       # Table walker requests started/completed, data/inst
system.cpu0.itb.walker.walkRequestOrigin_Completed::total            0                       # Table walker requests started/completed, data/inst
system.cpu0.itb.walker.walkRequestOrigin::total            0                       # Table walker requests started/completed, data/inst
system.cpu0.itb.walker.walks                        0                       # Table walker walks requested
system.cpu0.itb.write_accesses                      0                       # DTB write accesses
system.cpu0.itb.write_hits                          0                       # DTB write hits
system.cpu0.itb.write_misses                        0                       # DTB write misses
system.cpu0.not_idle_fraction                       1                       # Percentage of non-idle cycles
system.cpu0.numCycles                               0                       # number of cpu cycles simulated
system.cpu0.numWorkItemsCompleted                   0                       # number of work items this cpu completed
system.cpu0.numWorkItemsStarted                     0                       # number of work items this cpu started
system.cpu0.num_busy_cycles                         0                       # Number of busy cycles
system.cpu0.num_conditional_control_insts            0                       # number of instructions that are conditional controls
system.cpu0.num_fp_alu_accesses                     0                       # Number of float alu accesses
system.cpu0.num_fp_insts                            0                       # number of float instructions
system.cpu0.num_fp_register_reads                   0                       # number of times the floating registers were read
system.cpu0.num_fp_register_writes                  0                       # number of times the floating registers were written
system.cpu0.num_func_calls                          0                       # number of times a function call or return occured
system.cpu0.num_idle_cycles                         0                       # Number of idle cycles
system.cpu0.num_int_alu_accesses                    0                       # Number of integer alu accesses
system.cpu0.num_int_insts                           0                       # number of integer instructions
system.cpu0.num_int_register_reads                  0                       # number of times the integer registers were read
system.cpu0.num_int_register_writes                 0                       # number of times the integer registers were written
system.cpu0.num_load_insts                          0                       # Number of load instructions
system.cpu0.num_mem_refs                            0                       # number of memory refs
system.cpu0.num_store_insts                         0                       # Number of store instructions
system.cpu0.num_vec_alu_accesses                    0                       # Number of vector alu accesses
system.cpu0.num_vec_insts                           0                       # number of vector instructions
system.cpu0.num_vec_register_reads                  0                       # number of times the vector registers were read
system.cpu0.num_vec_register_writes                 0                       # number of times the vector registers were written
system.cpu0.op_class::No_OpClass                    0                       # Class of executed instruction
system.cpu0.op_class::IntAlu                        0                       # Class of executed instruction
system.cpu0.op_class::IntMult                       0                       # Class of executed instruction
system.cpu0.op_class::IntDiv                        0                       # Class of executed instruction
system.cpu0.op_class::FloatAdd                      0                       # Class of executed instruction
system.cpu0.op_class::FloatCmp                      0                       # Class of executed instruction
system.cpu0.op_class::FloatCvt                      0                       # Class of executed instruction
system.cpu0.op_class::FloatMult                     0                       # Class of executed instruction
system.cpu0.op_class::FloatMultAcc                  0                       # Class of executed instruction
system.cpu0.op_class::FloatDiv                      0                       # Class of executed instruction
system.cpu0.op_class::FloatMisc                     0                       # Class of executed instruction
system.cpu0.op_class::FloatSqrt                     0                       # Class of executed instruction
system.cpu0.op_class::SimdAdd                       0                       # Class of executed instruction
system.cpu0.op_class::SimdAddAcc                    0                       # Class of executed instruction
system.cpu0.op_class::SimdAlu                       0                       # Class of executed instruction
system.cpu0.op_class::SimdCmp                       0                       # Class of executed instruction
system.cpu0.op_class::SimdCvt                       0                       # Class of executed instruction
system.cpu0.op_class::SimdMisc                      0                       # Class of executed instruction
system.cpu0.op_class::SimdMult                      0                       # Class of executed instruction
system.cpu0.op_class::SimdMultAcc                   0                       # Class of executed instruction
system.cpu0.op_class::SimdShift                     0                       # Class of executed instruction
system.cpu0.op_class::SimdShiftAcc                  0                       # Class of executed instruction
system.cpu0.op_class::SimdDiv                       0                       # Class of executed instruction
system.cpu0.op_class::SimdSqrt                      0                       # Class of executed instruction
system.cpu0.op_class::SimdFloatAdd                  0                       # Class of executed instruction
system.cpu0.op_class::SimdFloatAlu                  0                       # Class of executed instruction
system.cpu0.op_class::SimdFloatCmp                  0                       # Class of executed instruction
system.cpu0.op_class::SimdFloatCvt                  0                       # Class of executed instruction
system.cpu0.op_class::SimdFloatDiv                  0                       # Class of executed instruction
system.cpu0.op_class::SimdFloatMisc                 0                       # Class of executed instruction
system.cpu0.op_class::SimdFloatMult                 0                       # Class of executed instruction
system.cpu0.op_class::SimdFloatMultAcc              0                       # Class of executed instruction
system.cpu0.op_class::SimdFloatSqrt                 0                       # Class of executed instruction
system.cpu0.op_class::SimdReduceAdd                 0                       # Class of executed instruction
system.cpu0.op_class::SimdReduceAlu                 0                       # Class of executed instruction
system.cpu0.op_class::SimdReduceCmp                 0                       # Class of executed instruction
system.cpu0.op_class::SimdFloatReduceAdd            0                       # Class of executed instruction
system.cpu0.op_class::SimdFloatReduceCmp            0                       # Class of executed instruction
system.cpu0.op_class::SimdAes                       0                       # Class of executed instruction
system.cpu0.op_class::SimdAesMix                    0                       # Class of executed instruction
system.cpu0.op_class::SimdSha1Hash                  0                       # Class of executed instruction
system.cpu0.op_class::SimdSha1Hash2                 0                       # Class of executed instruction
system.cpu0.op_class::SimdSha256Hash                0                       # Class of executed instruction
system.cpu0.op_class::SimdSha256Hash2               0                       # Class of executed instruction
system.cpu0.op_class::SimdShaSigma2                 0                       # Class of executed instruction
system.cpu0.op_class::SimdShaSigma3                 0                       # Class of executed instruction
system.cpu0.op_class::SimdPredAlu                   0                       # Class of executed instruction
system.cpu0.op_class::MemRead                       0                       # Class of executed instruction
system.cpu0.op_class::MemWrite                      0                       # Class of executed instruction
system.cpu0.op_class::FloatMemRead                  0                       # Class of executed instruction
system.cpu0.op_class::FloatMemWrite                 0                       # Class of executed instruction
system.cpu0.op_class::IprAccess                     0                       # Class of executed instruction
system.cpu0.op_class::InstPrefetch                  0                       # Class of executed instruction
system.cpu0.op_class::total                         0                       # Class of executed instruction
system.cpu0.workload.numSyscalls                  536                       # Number of system calls
system.cpu1.committedInsts                          0                       # Number of instructions committed
system.cpu1.committedOps                            0                       # Number of ops (including micro ops) committed
system.cpu1.dtb.accesses                            0                       # DTB accesses
system.cpu1.dtb.align_faults                        0                       # Number of TLB faults due to alignment restrictions
system.cpu1.dtb.domain_faults                       0                       # Number of TLB faults due to domain restrictions
system.cpu1.dtb.flush_entries                       0                       # Number of entries that have been flushed from TLB
system.cpu1.dtb.flush_tlb                           0                       # Number of times complete TLB was flushed
system.cpu1.dtb.flush_tlb_asid                      0                       # Number of times TLB was flushed by ASID
system.cpu1.dtb.flush_tlb_mva                       0                       # Number of times TLB was flushed by MVA
system.cpu1.dtb.flush_tlb_mva_asid                  0                       # Number of times TLB was flushed by MVA & ASID
system.cpu1.dtb.hits                                0                       # DTB hits
system.cpu1.dtb.inst_accesses                       0                       # ITB inst accesses
system.cpu1.dtb.inst_hits                           0                       # ITB inst hits
system.cpu1.dtb.inst_misses                         0                       # ITB inst misses
system.cpu1.dtb.misses                              0                       # DTB misses
system.cpu1.dtb.perms_faults                        0                       # Number of TLB faults due to permissions restrictions
system.cpu1.dtb.prefetch_faults                     0                       # Number of TLB faults due to prefetch
system.cpu1.dtb.read_accesses                       0                       # DTB read accesses
system.cpu1.dtb.read_hits                           0                       # DTB read hits
system.cpu1.dtb.read_misses                         0                       # DTB read misses
system.cpu1.dtb.stage2_mmu.stage2_tlb.accesses            0                       # DTB accesses
system.cpu1.dtb.stage2_mmu.stage2_tlb.align_faults            0                       # Number of TLB faults due to alignment restrictions
system.cpu1.dtb.stage2_mmu.stage2_tlb.domain_faults            0                       # Number of TLB faults due to domain restrictions
system.cpu1.dtb.stage2_mmu.stage2_tlb.flush_entries            0                       # Number of entries that have been flushed from TLB
system.cpu1.dtb.stage2_mmu.stage2_tlb.flush_tlb            0                       # Number of times complete TLB was flushed
system.cpu1.dtb.stage2_mmu.stage2_tlb.flush_tlb_asid            0                       # Number of times TLB was flushed by ASID
system.cpu1.dtb.stage2_mmu.stage2_tlb.flush_tlb_mva            0                       # Number of times TLB was flushed by MVA
system.cpu1.dtb.stage2_mmu.stage2_tlb.flush_tlb_mva_asid            0                       # Number of times TLB was flushed by MVA & ASID
system.cpu1.dtb.stage2_mmu.stage2_tlb.hits            0                       # DTB hits
system.cpu1.dtb.stage2_mmu.stage2_tlb.inst_accesses            0                       # ITB inst accesses
system.cpu1.dtb.stage2_mmu.stage2_tlb.inst_hits            0                       # ITB inst hits
system.cpu1.dtb.stage2_mmu.stage2_tlb.inst_misses            0                       # ITB inst misses
system.cpu1.dtb.stage2_mmu.stage2_tlb.misses            0                       # DTB misses
system.cpu1.dtb.stage2_mmu.stage2_tlb.perms_faults            0                       # Number of TLB faults due to permissions restrictions
system.cpu1.dtb.stage2_mmu.stage2_tlb.prefetch_faults            0                       # Number of TLB faults due to prefetch
system.cpu1.dtb.stage2_mmu.stage2_tlb.read_accesses            0                       # DTB read accesses
system.cpu1.dtb.stage2_mmu.stage2_tlb.read_hits            0                       # DTB read hits
system.cpu1.dtb.stage2_mmu.stage2_tlb.read_misses            0                       # DTB read misses
system.cpu1.dtb.stage2_mmu.stage2_tlb.walker.walkRequestOrigin_Requested::Data            0                       # Table walker requests started/completed, data/inst
system.cpu1.dtb.stage2_mmu.stage2_tlb.walker.walkRequestOrigin_Requested::Inst            0                       # Table walker requests started/completed, data/inst
system.cpu1.dtb.stage2_mmu.stage2_tlb.walker.walkRequestOrigin_Requested::total            0                       # Table walker requests started/completed, data/inst
system.cpu1.dtb.stage2_mmu.stage2_tlb.walker.walkRequestOrigin_Completed::Data            0                       # Table walker requests started/completed, data/inst
system.cpu1.dtb.stage2_mmu.stage2_tlb.walker.walkRequestOrigin_Completed::Inst            0                       # Table walker requests started/completed, data/inst
system.cpu1.dtb.stage2_mmu.stage2_tlb.walker.walkRequestOrigin_Completed::total            0                       # Table walker requests started/completed, data/inst
system.cpu1.dtb.stage2_mmu.stage2_tlb.walker.walkRequestOrigin::total            0                       # Table walker requests started/completed, data/inst
system.cpu1.dtb.stage2_mmu.stage2_tlb.walker.walks            0                       # Table walker walks requested
system.cpu1.dtb.stage2_mmu.stage2_tlb.write_accesses            0                       # DTB write accesses
system.cpu1.dtb.stage2_mmu.stage2_tlb.write_hits            0                       # DTB write hits
system.cpu1.dtb.stage2_mmu.stage2_tlb.write_misses            0                       # DTB write misses
system.cpu1.dtb.walker.walkRequestOrigin_Requested::Data            0                       # Table walker requests started/completed, data/inst
system.cpu1.dtb.walker.walkRequestOrigin_Requested::Inst            0                       # Table walker requests started/completed, data/inst
system.cpu1.dtb.walker.walkRequestOrigin_Requested::total            0                       # Table walker requests started/completed, data/inst
system.cpu1.dtb.walker.walkRequestOrigin_Completed::Data            0                       # Table walker requests started/completed, data/inst
system.cpu1.dtb.walker.walkRequestOrigin_Completed::Inst            0                       # Table walker requests started/completed, data/inst
system.cpu1.dtb.walker.walkRequestOrigin_Completed::total            0                       # Table walker requests started/completed, data/inst
system.cpu1.dtb.walker.walkRequestOrigin::total            0                       # Table walker requests started/completed, data/inst
system.cpu1.dtb.walker.walks                        0                       # Table walker walks requested
system.cpu1.dtb.write_accesses                      0                       # DTB write accesses
system.cpu1.dtb.write_hits                          0                       # DTB write hits
system.cpu1.dtb.write_misses                        0                       # DTB write misses
system.cpu1.idle_fraction                           0                       # Percentage of idle cycles
system.cpu1.itb.accesses                            0                       # DTB accesses
system.cpu1.itb.align_faults                        0                       # Number of TLB faults due to alignment restrictions
system.cpu1.itb.domain_faults                       0                       # Number of TLB faults due to domain restrictions
system.cpu1.itb.flush_entries                       0                       # Number of entries that have been flushed from TLB
system.cpu1.itb.flush_tlb                           0                       # Number of times complete TLB was flushed
system.cpu1.itb.flush_tlb_asid                      0                       # Number of times TLB was flushed by ASID
system.cpu1.itb.flush_tlb_mva                       0                       # Number of times TLB was flushed by MVA
system.cpu1.itb.flush_tlb_mva_asid                  0                       # Number of times TLB was flushed by MVA & ASID
system.cpu1.itb.hits                                0                       # DTB hits
system.cpu1.itb.inst_accesses                       0                       # ITB inst accesses
system.cpu1.itb.inst_hits                           0                       # ITB inst hits
system.cpu1.itb.inst_misses                         0                       # ITB inst misses
system.cpu1.itb.misses                              0                       # DTB misses
system.cpu1.itb.perms_faults                        0                       # Number of TLB faults due to permissions restrictions
system.cpu1.itb.prefetch_faults                     0                       # Number of TLB faults due to prefetch
system.cpu1.itb.read_accesses                       0                       # DTB read accesses
system.cpu1.itb.read_hits                           0                       # DTB read hits
system.cpu1.itb.read_misses                         0                       # DTB read misses
system.cpu1.itb.stage2_mmu.stage2_tlb.accesses            0                       # DTB accesses
system.cpu1.itb.stage2_mmu.stage2_tlb.align_faults            0                       # Number of TLB faults due to alignment restrictions
system.cpu1.itb.stage2_mmu.stage2_tlb.domain_faults            0                       # Number of TLB faults due to domain restrictions
system.cpu1.itb.stage2_mmu.stage2_tlb.flush_entries            0                       # Number of entries that have been flushed from TLB
system.cpu1.itb.stage2_mmu.stage2_tlb.flush_tlb            0                       # Number of times complete TLB was flushed
system.cpu1.itb.stage2_mmu.stage2_tlb.flush_tlb_asid            0                       # Number of times TLB was flushed by ASID
system.cpu1.itb.stage2_mmu.stage2_tlb.flush_tlb_mva            0                       # Number of times TLB was flushed by MVA
system.cpu1.itb.stage2_mmu.stage2_tlb.flush_tlb_mva_asid            0                       # Number of times TLB was flushed by MVA & ASID
system.cpu1.itb.stage2_mmu.stage2_tlb.hits            0                       # DTB hits
system.cpu1.itb.stage2_mmu.stage2_tlb.inst_accesses            0                       # ITB inst accesses
system.cpu1.itb.stage2_mmu.stage2_tlb.inst_hits            0                       # ITB inst hits
system.cpu1.itb.stage2_mmu.stage2_tlb.inst_misses            0                       # ITB inst misses
system.cpu1.itb.stage2_mmu.stage2_tlb.misses            0                       # DTB misses
system.cpu1.itb.stage2_mmu.stage2_tlb.perms_faults            0                       # Number of TLB faults due to permissions restrictions
system.cpu1.itb.stage2_mmu.stage2_tlb.prefetch_faults            0                       # Number of TLB faults due to prefetch
system.cpu1.itb.stage2_mmu.stage2_tlb.read_accesses            0                       # DTB read accesses
system.cpu1.itb.stage2_mmu.stage2_tlb.read_hits            0                       # DTB read hits
system.cpu1.itb.stage2_mmu.stage2_tlb.read_misses            0                       # DTB read misses
system.cpu1.itb.stage2_mmu.stage2_tlb.walker.walkRequestOrigin_Requested::Data            0                       # Table walker requests started/completed, data/inst
system.cpu1.itb.stage2_mmu.stage2_tlb.walker.walkRequestOrigin_Requested::Inst            0                       # Table walker requests started/completed, data/inst
system.cpu1.itb.stage2_mmu.stage2_tlb.walker.walkRequestOrigin_Requested::total            0                       # Table walker requests started/completed, data/inst
system.cpu1.itb.stage2_mmu.stage2_tlb.walker.walkRequestOrigin_Completed::Data            0                       # Table walker requests started/completed, data/inst
system.cpu1.itb.stage2_mmu.stage2_tlb.walker.walkRequestOrigin_Completed::Inst            0                       # Table walker requests started/completed, data/inst
system.cpu1.itb.stage2_mmu.stage2_tlb.walker.walkRequestOrigin_Completed::total            0                       # Table walker requests started/completed, data/inst
system.cpu1.itb.stage2_mmu.stage2_tlb.walker.walkRequestOrigin::total            0                       # Table walker requests started/completed, data/inst
system.cpu1.itb.stage2_mmu.stage2_tlb.walker.walks            0                       # Table walker walks requested
system.cpu1.itb.stage2_mmu.stage2_tlb.write_accesses            0                       # DTB write accesses
system.cpu1.itb.stage2_mmu.stage2_tlb.write_hits            0                       # DTB write hits
system.cpu1.itb.stage2_mmu.stage2_tlb.write_misses            0                       # DTB write misses
system.cpu1.itb.walker.walkRequestOrigin_Requested::Data            0                       # Table walker requests started/completed, data/inst
system.cpu1.itb.walker.walkRequestOrigin_Requested::Inst            0                       # Table walker requests started/completed, data/inst
system.cpu1.itb.walker.walkRequestOrigin_Requested::total            0                       # Table walker requests started/completed, data/inst
system.cpu1.itb.walker.walkRequestOrigin_Completed::Data            0                       # Table walker requests started/completed, data/inst
system.cpu1.itb.walker.walkRequestOrigin_Completed::Inst            0                       # Table walker requests started/completed, data/inst
system.cpu1.itb.walker.walkRequestOrigin_Completed::total            0                       # Table walker requests started/completed, data/inst
system.cpu1.itb.walker.walkRequestOrigin::total            0                       # Table walker requests started/completed, data/inst
system.cpu1.itb.walker.walks                        0                       # Table walker walks requested
system.cpu1.itb.write_accesses                      0                       # DTB write accesses
system.cpu1.itb.write_hits                          0                       # DTB write hits
system.cpu1.itb.write_misses                        0                       # DTB write misses
system.cpu1.not_idle_fraction                       1                       # Percentage of non-idle cycles
system.cpu1.numCycles                               0                       # number of cpu cycles simulated
system.cpu1.numWorkItemsCompleted                   0                       # number of work items this cpu completed
system.cpu1.numWorkItemsStarted                     0                       # number of work items this cpu started
system.cpu1.num_busy_cycles                         0                       # Number of busy cycles
system.cpu1.num_conditional_control_insts            0                       # number of instructions that are conditional controls
system.cpu1.num_fp_alu_accesses                     0                       # Number of float alu accesses
system.cpu1.num_fp_insts                            0                       # number of float instructions
system.cpu1.num_fp_register_reads                   0                       # number of times the floating registers were read
system.cpu1.num_fp_register_writes                  0                       # number of times the floating registers were written
system.cpu1.num_func_calls                          0                       # number of times a function call or return occured
system.cpu1.num_idle_cycles                         0                       # Number of idle cycles
system.cpu1.num_int_alu_accesses                    0                       # Number of integer alu accesses
system.cpu1.num_int_insts                           0                       # number of integer instructions
system.cpu1.num_int_register_reads                  0                       # number of times the integer registers were read
system.cpu1.num_int_register_writes                 0                       # number of times the integer registers were written
system.cpu1.num_load_insts                          0                       # Number of load instructions
system.cpu1.num_mem_refs                            0                       # number of memory refs
system.cpu1.num_store_insts                         0                       # Number of store instructions
system.cpu1.num_vec_alu_accesses                    0                       # Number of vector alu accesses
system.cpu1.num_vec_insts                           0                       # number of vector instructions
system.cpu1.num_vec_register_reads                  0                       # number of times the vector registers were read
system.cpu1.num_vec_register_writes                 0                       # number of times the vector registers were written
system.cpu1.op_class::No_OpClass                    0                       # Class of executed instruction
system.cpu1.op_class::IntAlu                        0                       # Class of executed instruction
system.cpu1.op_class::IntMult                       0                       # Class of executed instruction
system.cpu1.op_class::IntDiv                        0                       # Class of executed instruction
system.cpu1.op_class::FloatAdd                      0                       # Class of executed instruction
system.cpu1.op_class::FloatCmp                      0                       # Class of executed instruction
system.cpu1.op_class::FloatCvt                      0                       # Class of executed instruction
system.cpu1.op_class::FloatMult                     0                       # Class of executed instruction
system.cpu1.op_class::FloatMultAcc                  0                       # Class of executed instruction
system.cpu1.op_class::FloatDiv                      0                       # Class of executed instruction
system.cpu1.op_class::FloatMisc                     0                       # Class of executed instruction
system.cpu1.op_class::FloatSqrt                     0                       # Class of executed instruction
system.cpu1.op_class::SimdAdd                       0                       # Class of executed instruction
system.cpu1.op_class::SimdAddAcc                    0                       # Class of executed instruction
system.cpu1.op_class::SimdAlu                       0                       # Class of executed instruction
system.cpu1.op_class::SimdCmp                       0                       # Class of executed instruction
system.cpu1.op_class::SimdCvt                       0                       # Class of executed instruction
system.cpu1.op_class::SimdMisc                      0                       # Class of executed instruction
system.cpu1.op_class::SimdMult                      0                       # Class of executed instruction
system.cpu1.op_class::SimdMultAcc                   0                       # Class of executed instruction
system.cpu1.op_class::SimdShift                     0                       # Class of executed instruction
system.cpu1.op_class::SimdShiftAcc                  0                       # Class of executed instruction
system.cpu1.op_class::SimdDiv                       0                       # Class of executed instruction
system.cpu1.op_class::SimdSqrt                      0                       # Class of executed instruction
system.cpu1.op_class::SimdFloatAdd                  0                       # Class of executed instruction
system.cpu1.op_class::SimdFloatAlu                  0                       # Class of executed instruction
system.cpu1.op_class::SimdFloatCmp                  0                       # Class of executed instruction
system.cpu1.op_class::SimdFloatCvt                  0                       # Class of executed instruction
system.cpu1.op_class::SimdFloatDiv                  0                       # Class of executed instruction
system.cpu1.op_class::SimdFloatMisc                 0                       # Class of executed instruction
system.cpu1.op_class::SimdFloatMult                 0                       # Class of executed instruction
system.cpu1.op_class::SimdFloatMultAcc              0                       # Class of executed instruction
system.cpu1.op_class::SimdFloatSqrt                 0                       # Class of executed instruction
system.cpu1.op_class::SimdReduceAdd                 0                       # Class of executed instruction
system.cpu1.op_class::SimdReduceAlu                 0                       # Class of executed instruction
system.cpu1.op_class::SimdReduceCmp                 0                       # Class of executed instruction
system.cpu1.op_class::SimdFloatReduceAdd            0                       # Class of executed instruction
system.cpu1.op_class::SimdFloatReduceCmp            0                       # Class of executed instruction
system.cpu1.op_class::SimdAes                       0                       # Class of executed instruction
system.cpu1.op_class::SimdAesMix                    0                       # Class of executed instruction
system.cpu1.op_class::SimdSha1Hash                  0                       # Class of executed instruction
system.cpu1.op_class::SimdSha1Hash2                 0                       # Class of executed instruction
system.cpu1.op_class::SimdSha256Hash                0                       # Class of executed instruction
system.cpu1.op_class::SimdSha256Hash2               0                       # Class of executed instruction
system.cpu1.op_class::SimdShaSigma2                 0                       # Class of executed instruction
system.cpu1.op_class::SimdShaSigma3                 0                       # Class of executed instruction
system.cpu1.op_class::SimdPredAlu                   0                       # Class of executed instruction
system.cpu1.op_class::MemRead                       0                       # Class of executed instruction
system.cpu1.op_class::MemWrite                      0                       # Class of executed instruction
system.cpu1.op_class::FloatMemRead                  0                       # Class of executed instruction
system.cpu1.op_class::FloatMemWrite                 0                       # Class of executed instruction
system.cpu1.op_class::IprAccess                     0                       # Class of executed instruction
system.cpu1.op_class::InstPrefetch                  0                       # Class of executed instruction
system.cpu1.op_class::total                         0                       # Class of executed instruction
system.cpu1.workload.numSyscalls                  346                       # Number of system calls
system.membus.snoop_filter.hit_multi_requests            0                       # Number of requests hitting in the snoop filter with multiple (>1) holders of the requested data.
system.membus.snoop_filter.hit_multi_snoops            0                       # Number of snoops hitting in the snoop filter with multiple (>1) holders of the requested data.
system.membus.snoop_filter.hit_single_requests          137                       # Number of requests hitting in the snoop filter with a single holder of the requested data.
system.membus.snoop_filter.hit_single_snoops            0                       # Number of snoops hitting in the snoop filter with a single holder of the requested data.
system.membus.snoop_filter.tot_requests           207                       # Total number of requests made to the snoop filter.
system.membus.snoop_filter.tot_snoops               0                       # Total number of snoops made to the snoop filter.
system.switch_cpus0.branchPred.BTBCorrect            0                       # Number of correct BTB predictions (this stat may not work properly.
system.switch_cpus0.branchPred.BTBHitPct    29.845667                       # BTB Hit Percentage
system.switch_cpus0.branchPred.BTBHits      287483591                       # Number of BTB hits
system.switch_cpus0.branchPred.BTBLookups    963233926                       # Number of BTB lookups
system.switch_cpus0.branchPred.RASInCorrect            2                       # Number of incorrect RAS predictions.
system.switch_cpus0.branchPred.condIncorrect      1105186                       # Number of conditional branches incorrect
system.switch_cpus0.branchPred.condPredicted    846796197                       # Number of conditional branches predicted
system.switch_cpus0.branchPred.indirectHits     35985914                       # Number of indirect target hits.
system.switch_cpus0.branchPred.indirectLookups     35992491                       # Number of indirect predictor lookups.
system.switch_cpus0.branchPred.indirectMisses         6577                       # Number of indirect misses.
system.switch_cpus0.branchPred.lookups     1007769453                       # Number of BP lookups
system.switch_cpus0.branchPred.usedRAS       44497543                       # Number of times the RAS was used to get a target.
system.switch_cpus0.branchPredindirectMispredicted           54                       # Number of mispredicted indirect branches.
system.switch_cpus0.cc_regfile_reads       1430049711                       # number of cc regfile reads
system.switch_cpus0.cc_regfile_writes      1272138150                       # number of cc regfile writes
system.switch_cpus0.commit.amos                     0                       # Number of atomic instructions committed
system.switch_cpus0.commit.branchMispredicts      1104015                       # The number of times a branch was mispredicted
system.switch_cpus0.commit.branches         996658093                       # Number of branches committed
system.switch_cpus0.commit.bw_lim_events    300835295                       # number cycles where commit BW limit reached
system.switch_cpus0.commit.commitNonSpecStalls     79062628                       # The number of times commit has been forced to stall to communicate backwards
system.switch_cpus0.commit.commitSquashedInsts     26390638                       # The number of squashed insts skipped by commit
system.switch_cpus0.commit.committedInsts   4389107782                       # Number of instructions committed
system.switch_cpus0.commit.committedOps    5135439704                       # Number of ops (including micro ops) committed
system.switch_cpus0.commit.committed_per_cycle::samples   3160656403                       # Number of insts commited each cycle
system.switch_cpus0.commit.committed_per_cycle::mean     1.624802                       # Number of insts commited each cycle
system.switch_cpus0.commit.committed_per_cycle::stdev     2.587174                       # Number of insts commited each cycle
system.switch_cpus0.commit.committed_per_cycle::underflows            0      0.00%      0.00% # Number of insts commited each cycle
system.switch_cpus0.commit.committed_per_cycle::0   1720171336     54.42%     54.42% # Number of insts commited each cycle
system.switch_cpus0.commit.committed_per_cycle::1    560779666     17.74%     72.17% # Number of insts commited each cycle
system.switch_cpus0.commit.committed_per_cycle::2    185599717      5.87%     78.04% # Number of insts commited each cycle
system.switch_cpus0.commit.committed_per_cycle::3    102213801      3.23%     81.27% # Number of insts commited each cycle
system.switch_cpus0.commit.committed_per_cycle::4    131267240      4.15%     85.43% # Number of insts commited each cycle
system.switch_cpus0.commit.committed_per_cycle::5     44133370      1.40%     86.82% # Number of insts commited each cycle
system.switch_cpus0.commit.committed_per_cycle::6     65190815      2.06%     88.89% # Number of insts commited each cycle
system.switch_cpus0.commit.committed_per_cycle::7     50465163      1.60%     90.48% # Number of insts commited each cycle
system.switch_cpus0.commit.committed_per_cycle::8    300835295      9.52%    100.00% # Number of insts commited each cycle
system.switch_cpus0.commit.committed_per_cycle::overflows            0      0.00%    100.00% # Number of insts commited each cycle
system.switch_cpus0.commit.committed_per_cycle::min_value            0                       # Number of insts commited each cycle
system.switch_cpus0.commit.committed_per_cycle::max_value            8                       # Number of insts commited each cycle
system.switch_cpus0.commit.committed_per_cycle::total   3160656403                       # Number of insts commited each cycle
system.switch_cpus0.commit.fp_insts                 0                       # Number of committed floating point instructions.
system.switch_cpus0.commit.function_calls     44215404                       # Number of function calls committed.
system.switch_cpus0.commit.int_insts       4659071297                       # Number of committed integer instructions.
system.switch_cpus0.commit.loads           1107249397                       # Number of loads committed
system.switch_cpus0.commit.membars           87845875                       # Number of memory barriers committed
system.switch_cpus0.commit.op_class_0::No_OpClass            0      0.00%      0.00% # Class of committed instruction
system.switch_cpus0.commit.op_class_0::IntAlu   3121849189     60.79%     60.79% # Class of committed instruction
system.switch_cpus0.commit.op_class_0::IntMult     17571854      0.34%     61.13% # Class of committed instruction
system.switch_cpus0.commit.op_class_0::IntDiv            0      0.00%     61.13% # Class of committed instruction
system.switch_cpus0.commit.op_class_0::FloatAdd            0      0.00%     61.13% # Class of committed instruction
system.switch_cpus0.commit.op_class_0::FloatCmp            0      0.00%     61.13% # Class of committed instruction
system.switch_cpus0.commit.op_class_0::FloatCvt            0      0.00%     61.13% # Class of committed instruction
system.switch_cpus0.commit.op_class_0::FloatMult            0      0.00%     61.13% # Class of committed instruction
system.switch_cpus0.commit.op_class_0::FloatMultAcc            0      0.00%     61.13% # Class of committed instruction
system.switch_cpus0.commit.op_class_0::FloatDiv            0      0.00%     61.13% # Class of committed instruction
system.switch_cpus0.commit.op_class_0::FloatMisc            0      0.00%     61.13% # Class of committed instruction
system.switch_cpus0.commit.op_class_0::FloatSqrt            0      0.00%     61.13% # Class of committed instruction
system.switch_cpus0.commit.op_class_0::SimdAdd            0      0.00%     61.13% # Class of committed instruction
system.switch_cpus0.commit.op_class_0::SimdAddAcc            0      0.00%     61.13% # Class of committed instruction
system.switch_cpus0.commit.op_class_0::SimdAlu            0      0.00%     61.13% # Class of committed instruction
system.switch_cpus0.commit.op_class_0::SimdCmp            0      0.00%     61.13% # Class of committed instruction
system.switch_cpus0.commit.op_class_0::SimdCvt            0      0.00%     61.13% # Class of committed instruction
system.switch_cpus0.commit.op_class_0::SimdMisc            0      0.00%     61.13% # Class of committed instruction
system.switch_cpus0.commit.op_class_0::SimdMult            0      0.00%     61.13% # Class of committed instruction
system.switch_cpus0.commit.op_class_0::SimdMultAcc            0      0.00%     61.13% # Class of committed instruction
system.switch_cpus0.commit.op_class_0::SimdShift            0      0.00%     61.13% # Class of committed instruction
system.switch_cpus0.commit.op_class_0::SimdShiftAcc            0      0.00%     61.13% # Class of committed instruction
system.switch_cpus0.commit.op_class_0::SimdDiv            0      0.00%     61.13% # Class of committed instruction
system.switch_cpus0.commit.op_class_0::SimdSqrt            0      0.00%     61.13% # Class of committed instruction
system.switch_cpus0.commit.op_class_0::SimdFloatAdd            0      0.00%     61.13% # Class of committed instruction
system.switch_cpus0.commit.op_class_0::SimdFloatAlu            0      0.00%     61.13% # Class of committed instruction
system.switch_cpus0.commit.op_class_0::SimdFloatCmp            0      0.00%     61.13% # Class of committed instruction
system.switch_cpus0.commit.op_class_0::SimdFloatCvt            0      0.00%     61.13% # Class of committed instruction
system.switch_cpus0.commit.op_class_0::SimdFloatDiv            0      0.00%     61.13% # Class of committed instruction
system.switch_cpus0.commit.op_class_0::SimdFloatMisc            0      0.00%     61.13% # Class of committed instruction
system.switch_cpus0.commit.op_class_0::SimdFloatMult            0      0.00%     61.13% # Class of committed instruction
system.switch_cpus0.commit.op_class_0::SimdFloatMultAcc            0      0.00%     61.13% # Class of committed instruction
system.switch_cpus0.commit.op_class_0::SimdFloatSqrt            0      0.00%     61.13% # Class of committed instruction
system.switch_cpus0.commit.op_class_0::SimdReduceAdd            0      0.00%     61.13% # Class of committed instruction
system.switch_cpus0.commit.op_class_0::SimdReduceAlu            0      0.00%     61.13% # Class of committed instruction
system.switch_cpus0.commit.op_class_0::SimdReduceCmp            0      0.00%     61.13% # Class of committed instruction
system.switch_cpus0.commit.op_class_0::SimdFloatReduceAdd            0      0.00%     61.13% # Class of committed instruction
system.switch_cpus0.commit.op_class_0::SimdFloatReduceCmp            0      0.00%     61.13% # Class of committed instruction
system.switch_cpus0.commit.op_class_0::SimdAes            0      0.00%     61.13% # Class of committed instruction
system.switch_cpus0.commit.op_class_0::SimdAesMix            0      0.00%     61.13% # Class of committed instruction
system.switch_cpus0.commit.op_class_0::SimdSha1Hash            0      0.00%     61.13% # Class of committed instruction
system.switch_cpus0.commit.op_class_0::SimdSha1Hash2            0      0.00%     61.13% # Class of committed instruction
system.switch_cpus0.commit.op_class_0::SimdSha256Hash            0      0.00%     61.13% # Class of committed instruction
system.switch_cpus0.commit.op_class_0::SimdSha256Hash2            0      0.00%     61.13% # Class of committed instruction
system.switch_cpus0.commit.op_class_0::SimdShaSigma2            0      0.00%     61.13% # Class of committed instruction
system.switch_cpus0.commit.op_class_0::SimdShaSigma3            0      0.00%     61.13% # Class of committed instruction
system.switch_cpus0.commit.op_class_0::SimdPredAlu            0      0.00%     61.13% # Class of committed instruction
system.switch_cpus0.commit.op_class_0::MemRead   1107249397     21.56%     82.69% # Class of committed instruction
system.switch_cpus0.commit.op_class_0::MemWrite    888769264     17.31%    100.00% # Class of committed instruction
system.switch_cpus0.commit.op_class_0::FloatMemRead            0      0.00%    100.00% # Class of committed instruction
system.switch_cpus0.commit.op_class_0::FloatMemWrite            0      0.00%    100.00% # Class of committed instruction
system.switch_cpus0.commit.op_class_0::IprAccess            0      0.00%    100.00% # Class of committed instruction
system.switch_cpus0.commit.op_class_0::InstPrefetch            0      0.00%    100.00% # Class of committed instruction
system.switch_cpus0.commit.op_class_0::total   5135439704                       # Class of committed instruction
system.switch_cpus0.commit.refs            1996018661                       # Number of memory references committed
system.switch_cpus0.commit.swp_count                0                       # Number of s/w prefetches committed
system.switch_cpus0.commit.vec_insts        108726328                       # Number of committed Vector instructions.
system.switch_cpus0.committedInsts         4389107782                       # Number of Instructions Simulated
system.switch_cpus0.committedOps           5135439704                       # Number of Ops (including micro ops) Simulated
system.switch_cpus0.cpi                      0.720984                       # CPI: Cycles Per Instruction
system.switch_cpus0.cpi_total                0.720984                       # CPI: Total CPI of All Threads
system.switch_cpus0.decode.BlockedCycles   2287228293                       # Number of cycles decode is blocked
system.switch_cpus0.decode.BranchMispred         1177                       # Number of times decode detected a branch misprediction
system.switch_cpus0.decode.BranchResolved    286782877                       # Number of times decode resolved a branch
system.switch_cpus0.decode.DecodedInsts    5177532994                       # Number of instructions handled by decode
system.switch_cpus0.decode.IdleCycles       161604116                       # Number of cycles decode is idle
system.switch_cpus0.decode.RunCycles        535818859                       # Number of cycles decode is running
system.switch_cpus0.decode.SquashCycles       1130115                       # Number of cycles decode is squashing
system.switch_cpus0.decode.SquashedInsts         2038                       # Number of squashed instructions handled by decode
system.switch_cpus0.decode.UnblockCycles    178692754                       # Number of cycles decode is unblocking
system.switch_cpus0.dtb.accesses                    0                       # DTB accesses
system.switch_cpus0.dtb.align_faults                0                       # Number of TLB faults due to alignment restrictions
system.switch_cpus0.dtb.domain_faults               0                       # Number of TLB faults due to domain restrictions
system.switch_cpus0.dtb.flush_entries               0                       # Number of entries that have been flushed from TLB
system.switch_cpus0.dtb.flush_tlb                   0                       # Number of times complete TLB was flushed
system.switch_cpus0.dtb.flush_tlb_asid              0                       # Number of times TLB was flushed by ASID
system.switch_cpus0.dtb.flush_tlb_mva               0                       # Number of times TLB was flushed by MVA
system.switch_cpus0.dtb.flush_tlb_mva_asid            0                       # Number of times TLB was flushed by MVA & ASID
system.switch_cpus0.dtb.hits                        0                       # DTB hits
system.switch_cpus0.dtb.inst_accesses               0                       # ITB inst accesses
system.switch_cpus0.dtb.inst_hits                   0                       # ITB inst hits
system.switch_cpus0.dtb.inst_misses                 0                       # ITB inst misses
system.switch_cpus0.dtb.misses                      0                       # DTB misses
system.switch_cpus0.dtb.perms_faults                0                       # Number of TLB faults due to permissions restrictions
system.switch_cpus0.dtb.prefetch_faults             0                       # Number of TLB faults due to prefetch
system.switch_cpus0.dtb.read_accesses               0                       # DTB read accesses
system.switch_cpus0.dtb.read_hits                   0                       # DTB read hits
system.switch_cpus0.dtb.read_misses                 0                       # DTB read misses
system.switch_cpus0.dtb.stage2_mmu.stage2_tlb.accesses            0                       # DTB accesses
system.switch_cpus0.dtb.stage2_mmu.stage2_tlb.align_faults            0                       # Number of TLB faults due to alignment restrictions
system.switch_cpus0.dtb.stage2_mmu.stage2_tlb.domain_faults            0                       # Number of TLB faults due to domain restrictions
system.switch_cpus0.dtb.stage2_mmu.stage2_tlb.flush_entries            0                       # Number of entries that have been flushed from TLB
system.switch_cpus0.dtb.stage2_mmu.stage2_tlb.flush_tlb            0                       # Number of times complete TLB was flushed
system.switch_cpus0.dtb.stage2_mmu.stage2_tlb.flush_tlb_asid            0                       # Number of times TLB was flushed by ASID
system.switch_cpus0.dtb.stage2_mmu.stage2_tlb.flush_tlb_mva            0                       # Number of times TLB was flushed by MVA
system.switch_cpus0.dtb.stage2_mmu.stage2_tlb.flush_tlb_mva_asid            0                       # Number of times TLB was flushed by MVA & ASID
system.switch_cpus0.dtb.stage2_mmu.stage2_tlb.hits            0                       # DTB hits
system.switch_cpus0.dtb.stage2_mmu.stage2_tlb.inst_accesses            0                       # ITB inst accesses
system.switch_cpus0.dtb.stage2_mmu.stage2_tlb.inst_hits            0                       # ITB inst hits
system.switch_cpus0.dtb.stage2_mmu.stage2_tlb.inst_misses            0                       # ITB inst misses
system.switch_cpus0.dtb.stage2_mmu.stage2_tlb.misses            0                       # DTB misses
system.switch_cpus0.dtb.stage2_mmu.stage2_tlb.perms_faults            0                       # Number of TLB faults due to permissions restrictions
system.switch_cpus0.dtb.stage2_mmu.stage2_tlb.prefetch_faults            0                       # Number of TLB faults due to prefetch
system.switch_cpus0.dtb.stage2_mmu.stage2_tlb.read_accesses            0                       # DTB read accesses
system.switch_cpus0.dtb.stage2_mmu.stage2_tlb.read_hits            0                       # DTB read hits
system.switch_cpus0.dtb.stage2_mmu.stage2_tlb.read_misses            0                       # DTB read misses
system.switch_cpus0.dtb.stage2_mmu.stage2_tlb.walker.walkRequestOrigin_Requested::Data            0                       # Table walker requests started/completed, data/inst
system.switch_cpus0.dtb.stage2_mmu.stage2_tlb.walker.walkRequestOrigin_Requested::Inst            0                       # Table walker requests started/completed, data/inst
system.switch_cpus0.dtb.stage2_mmu.stage2_tlb.walker.walkRequestOrigin_Requested::total            0                       # Table walker requests started/completed, data/inst
system.switch_cpus0.dtb.stage2_mmu.stage2_tlb.walker.walkRequestOrigin_Completed::Data            0                       # Table walker requests started/completed, data/inst
system.switch_cpus0.dtb.stage2_mmu.stage2_tlb.walker.walkRequestOrigin_Completed::Inst            0                       # Table walker requests started/completed, data/inst
system.switch_cpus0.dtb.stage2_mmu.stage2_tlb.walker.walkRequestOrigin_Completed::total            0                       # Table walker requests started/completed, data/inst
system.switch_cpus0.dtb.stage2_mmu.stage2_tlb.walker.walkRequestOrigin::total            0                       # Table walker requests started/completed, data/inst
system.switch_cpus0.dtb.stage2_mmu.stage2_tlb.walker.walks            0                       # Table walker walks requested
system.switch_cpus0.dtb.stage2_mmu.stage2_tlb.write_accesses            0                       # DTB write accesses
system.switch_cpus0.dtb.stage2_mmu.stage2_tlb.write_hits            0                       # DTB write hits
system.switch_cpus0.dtb.stage2_mmu.stage2_tlb.write_misses            0                       # DTB write misses
system.switch_cpus0.dtb.walker.walkRequestOrigin_Requested::Data            0                       # Table walker requests started/completed, data/inst
system.switch_cpus0.dtb.walker.walkRequestOrigin_Requested::Inst            0                       # Table walker requests started/completed, data/inst
system.switch_cpus0.dtb.walker.walkRequestOrigin_Requested::total            0                       # Table walker requests started/completed, data/inst
system.switch_cpus0.dtb.walker.walkRequestOrigin_Completed::Data            0                       # Table walker requests started/completed, data/inst
system.switch_cpus0.dtb.walker.walkRequestOrigin_Completed::Inst            0                       # Table walker requests started/completed, data/inst
system.switch_cpus0.dtb.walker.walkRequestOrigin_Completed::total            0                       # Table walker requests started/completed, data/inst
system.switch_cpus0.dtb.walker.walkRequestOrigin::total            0                       # Table walker requests started/completed, data/inst
system.switch_cpus0.dtb.walker.walks                0                       # Table walker walks requested
system.switch_cpus0.dtb.write_accesses              0                       # DTB write accesses
system.switch_cpus0.dtb.write_hits                  0                       # DTB write hits
system.switch_cpus0.dtb.write_misses                0                       # DTB write misses
system.switch_cpus0.fetch.Branches         1007769453                       # Number of branches that fetch encountered
system.switch_cpus0.fetch.CacheLines        535889095                       # Number of cache lines fetched
system.switch_cpus0.fetch.Cycles           2626824392                       # Number of cycles fetch has run and was not squashing or blocked
system.switch_cpus0.fetch.IcacheSquashes       222565                       # Number of outstanding Icache misses that were squashed
system.switch_cpus0.fetch.IcacheWaitRetryStallCycles           61                       # Number of stall cycles due to full MSHR
system.switch_cpus0.fetch.Insts            4435957273                       # Number of instructions fetch has processed
system.switch_cpus0.fetch.MiscStallCycles           44                       # Number of cycles fetch has spent waiting on interrupts, or bad addresses, or out of MSHRs
system.switch_cpus0.fetch.SquashCycles        2262572                       # Number of cycles fetch has spent squashing
system.switch_cpus0.fetch.branchRate         0.318463                       # Number of branch fetches per cycle
system.switch_cpus0.fetch.icacheStallCycles    536518356                       # Number of cycles fetch is stalled on an Icache miss
system.switch_cpus0.fetch.predictedBranches    367967048                       # Number of branches that fetch has predicted taken
system.switch_cpus0.fetch.rate               1.401799                       # Number of inst fetches per cycle
system.switch_cpus0.fetch.rateDist::samples   3164474139                       # Number of instructions fetched each cycle (Total)
system.switch_cpus0.fetch.rateDist::mean     1.639648                       # Number of instructions fetched each cycle (Total)
system.switch_cpus0.fetch.rateDist::stdev     2.855738                       # Number of instructions fetched each cycle (Total)
system.switch_cpus0.fetch.rateDist::underflows            0      0.00%      0.00% # Number of instructions fetched each cycle (Total)
system.switch_cpus0.fetch.rateDist::0      2158652369     68.22%     68.22% # Number of instructions fetched each cycle (Total)
system.switch_cpus0.fetch.rateDist::1       154601183      4.89%     73.10% # Number of instructions fetched each cycle (Total)
system.switch_cpus0.fetch.rateDist::2        70798746      2.24%     75.34% # Number of instructions fetched each cycle (Total)
system.switch_cpus0.fetch.rateDist::3       120385789      3.80%     79.14% # Number of instructions fetched each cycle (Total)
system.switch_cpus0.fetch.rateDist::4       116192593      3.67%     82.81% # Number of instructions fetched each cycle (Total)
system.switch_cpus0.fetch.rateDist::5        41148446      1.30%     84.11% # Number of instructions fetched each cycle (Total)
system.switch_cpus0.fetch.rateDist::6        72551453      2.29%     86.41% # Number of instructions fetched each cycle (Total)
system.switch_cpus0.fetch.rateDist::7        15702076      0.50%     86.90% # Number of instructions fetched each cycle (Total)
system.switch_cpus0.fetch.rateDist::8       414441484     13.10%    100.00% # Number of instructions fetched each cycle (Total)
system.switch_cpus0.fetch.rateDist::overflows            0      0.00%    100.00% # Number of instructions fetched each cycle (Total)
system.switch_cpus0.fetch.rateDist::min_value            0                       # Number of instructions fetched each cycle (Total)
system.switch_cpus0.fetch.rateDist::max_value            8                       # Number of instructions fetched each cycle (Total)
system.switch_cpus0.fetch.rateDist::total   3164474139                       # Number of instructions fetched each cycle (Total)
system.switch_cpus0.idleCycles                    533                       # Total number of cycles that the CPU has spent unscheduled due to idling
system.switch_cpus0.iew.branchMispredicts      1653743                       # Number of branch mispredicts detected at execute
system.switch_cpus0.iew.exec_branches       998386834                       # Number of branches executed
system.switch_cpus0.iew.exec_nop                    0                       # number of nop insts executed
system.switch_cpus0.iew.exec_rate            1.646124                       # Inst execution rate
system.switch_cpus0.iew.exec_refs          2061172741                       # number of memory reference insts executed
system.switch_cpus0.iew.exec_stores         890071106                       # Number of stores executed
system.switch_cpus0.iew.exec_swp                    0                       # number of swp insts executed
system.switch_cpus0.iew.iewBlockCycles        2687621                       # Number of cycles IEW is blocking
system.switch_cpus0.iew.iewDispLoadInsts   1112258399                       # Number of dispatched load instructions
system.switch_cpus0.iew.iewDispNonSpecInsts     79338222                       # Number of dispatched non-speculative instructions
system.switch_cpus0.iew.iewDispSquashedInsts       135474                       # Number of squashed instructions skipped by dispatch
system.switch_cpus0.iew.iewDispStoreInsts    892661366                       # Number of dispatched store instructions
system.switch_cpus0.iew.iewDispatchedInsts   5161821759                       # Number of instructions dispatched to IQ
system.switch_cpus0.iew.iewExecLoadInsts   1171101635                       # Number of load instructions executed
system.switch_cpus0.iew.iewExecSquashedInsts      1943762                       # Number of squashed instructions skipped in execute
system.switch_cpus0.iew.iewExecutedInsts   5209117866                       # Number of executed instructions
system.switch_cpus0.iew.iewIQFullEvents             0                       # Number of times the IQ has become full, causing a stall
system.switch_cpus0.iew.iewIdleCycles               0                       # Number of cycles IEW is idle
system.switch_cpus0.iew.iewLSQFullEvents      2162564                       # Number of times the LSQ has become full, causing a stall
system.switch_cpus0.iew.iewSquashCycles       1130115                       # Number of cycles IEW is squashing
system.switch_cpus0.iew.iewUnblockCycles      2154639                       # Number of cycles IEW is unblocking
system.switch_cpus0.iew.lsq.thread0.blockedLoads            0                       # Number of blocked loads due to partial load-store forwarding
system.switch_cpus0.iew.lsq.thread0.cacheBlocked            0                       # Number of times an access to memory failed due to the cache being blocked
system.switch_cpus0.iew.lsq.thread0.forwLoads     35972430                       # Number of loads that had data forwarded from stores
system.switch_cpus0.iew.lsq.thread0.ignoredResponses            1                       # Number of memory responses ignored because the instruction is squashed
system.switch_cpus0.iew.lsq.thread0.invAddrLoads            0                       # Number of loads ignored due to an invalid address
system.switch_cpus0.iew.lsq.thread0.invAddrSwpfs            0                       # Number of software prefetches ignored due to an invalid address
system.switch_cpus0.iew.lsq.thread0.memOrderViolation        35190                       # Number of memory ordering violations
system.switch_cpus0.iew.lsq.thread0.rescheduledLoads     61506286                       # Number of loads that were rescheduled
system.switch_cpus0.iew.lsq.thread0.squashedLoads      5009002                       # Number of loads squashed
system.switch_cpus0.iew.lsq.thread0.squashedStores      3892101                       # Number of stores squashed
system.switch_cpus0.iew.memOrderViolationEvents        35190                       # Number of memory order violations
system.switch_cpus0.iew.predictedNotTakenIncorrect         4088                       # Number of branches that were predicted not taken incorrectly
system.switch_cpus0.iew.predictedTakenIncorrect      1649655                       # Number of branches that were predicted taken incorrectly
system.switch_cpus0.iew.wb_consumers       4721843779                       # num instructions consuming a value
system.switch_cpus0.iew.wb_count           5145900809                       # cumulative count of insts written-back
system.switch_cpus0.iew.wb_fanout            0.572225                       # average fanout of values written-back
system.switch_cpus0.iew.wb_producers       2701958697                       # num instructions producing a value
system.switch_cpus0.iew.wb_rate              1.626147                       # insts written-back per cycle
system.switch_cpus0.iew.wb_sent            5146485301                       # cumulative count of insts sent to commit
system.switch_cpus0.int_regfile_reads      5963703492                       # number of integer regfile reads
system.switch_cpus0.int_regfile_writes     3532628534                       # number of integer regfile writes
system.switch_cpus0.ipc                      1.386994                       # IPC: Instructions Per Cycle
system.switch_cpus0.ipc_total                1.386994                       # IPC: Total IPC of All Threads
system.switch_cpus0.iq.FU_type_0::No_OpClass            0      0.00%      0.00% # Type of FU issued
system.switch_cpus0.iq.FU_type_0::IntAlu   3131152681     60.09%     60.09% # Type of FU issued
system.switch_cpus0.iq.FU_type_0::IntMult     17571854      0.34%     60.42% # Type of FU issued
system.switch_cpus0.iq.FU_type_0::IntDiv            0      0.00%     60.42% # Type of FU issued
system.switch_cpus0.iq.FU_type_0::FloatAdd            0      0.00%     60.42% # Type of FU issued
system.switch_cpus0.iq.FU_type_0::FloatCmp            0      0.00%     60.42% # Type of FU issued
system.switch_cpus0.iq.FU_type_0::FloatCvt            0      0.00%     60.42% # Type of FU issued
system.switch_cpus0.iq.FU_type_0::FloatMult            0      0.00%     60.42% # Type of FU issued
system.switch_cpus0.iq.FU_type_0::FloatMultAcc            0      0.00%     60.42% # Type of FU issued
system.switch_cpus0.iq.FU_type_0::FloatDiv            0      0.00%     60.42% # Type of FU issued
system.switch_cpus0.iq.FU_type_0::FloatMisc            2      0.00%     60.42% # Type of FU issued
system.switch_cpus0.iq.FU_type_0::FloatSqrt            0      0.00%     60.42% # Type of FU issued
system.switch_cpus0.iq.FU_type_0::SimdAdd            0      0.00%     60.42% # Type of FU issued
system.switch_cpus0.iq.FU_type_0::SimdAddAcc            0      0.00%     60.42% # Type of FU issued
[...]
system.l2.demand_avg_mshr_miss_latency::.switch_cpus0.data       103089                       # average overall mshr miss latency
system.l2.demand_avg_mshr_miss_latency::.switch_cpus1.inst 92707.833333                       # average overall mshr miss latency
system.l2.demand_avg_mshr_miss_latency::.switch_cpus1.data 104531.500000                       # average overall mshr miss latency
system.l2.demand_avg_mshr_miss_latency::total 104651.885714                       # average overall mshr miss latency
system.l2.overall_avg_mshr_miss_latency::.switch_cpus0.inst 114948.057143                       # average overall mshr miss latency
system.l2.overall_avg_mshr_miss_latency::.switch_cpus0.data       103089                       # average overall mshr miss latency
system.l2.overall_avg_mshr_miss_latency::.switch_cpus1.inst 92707.833333                       # average overall mshr miss latency
system.l2.overall_avg_mshr_miss_latency::.switch_cpus1.data 104531.500000                       # average overall mshr miss latency
system.l2.overall_avg_mshr_miss_latency::total 104651.885714                       # average overall mshr miss latency
system.l2.replacements                            137                       # number of replacements
system.l2.WritebackDirty_hits::.writebacks     16626472                       # number of WritebackDirty hits
system.l2.WritebackDirty_hits::total         16626472                       # number of WritebackDirty hits
system.l2.WritebackDirty_accesses::.writebacks     16626472                       # number of WritebackDirty accesses(hits+misses)
system.l2.WritebackDirty_accesses::total     16626472                       # number of WritebackDirty accesses(hits+misses)
system.l2.WritebackClean_hits::.writebacks           67                       # number of WritebackClean hits
system.l2.WritebackClean_hits::total               67                       # number of WritebackClean hits
system.l2.WritebackClean_accesses::.writebacks           67                       # number of WritebackClean accesses(hits+misses)
system.l2.WritebackClean_accesses::total           67                       # number of WritebackClean accesses(hits+misses)
system.l2.ReadExReq_hits::.switch_cpus0.data         1608                       # number of ReadExReq hits
system.l2.ReadExReq_hits::.switch_cpus1.data          346                       # number of ReadExReq hits
system.l2.ReadExReq_hits::total                  1954                       # number of ReadExReq hits
system.l2.ReadExReq_accesses::.switch_cpus0.data         1608                       # number of ReadExReq accesses(hits+misses)
system.l2.ReadExReq_accesses::.switch_cpus1.data          346                       # number of ReadExReq accesses(hits+misses)
system.l2.ReadExReq_accesses::total              1954                       # number of ReadExReq accesses(hits+misses)
system.l2.ReadCleanReq_hits::.switch_cpus0.inst            1                       # number of ReadCleanReq hits
system.l2.ReadCleanReq_hits::.switch_cpus1.inst            1                       # number of ReadCleanReq hits
system.l2.ReadCleanReq_hits::total                  2                       # number of ReadCleanReq hits
system.l2.ReadCleanReq_misses::.switch_cpus0.inst           35                       # number of ReadCleanReq misses
system.l2.ReadCleanReq_misses::.switch_cpus1.inst           30                       # number of ReadCleanReq misses
system.l2.ReadCleanReq_misses::total               65                       # number of ReadCleanReq misses
system.l2.ReadCleanReq_miss_latency::.switch_cpus0.inst      4323039                       # number of ReadCleanReq miss cycles
system.l2.ReadCleanReq_miss_latency::.switch_cpus1.inst      3037845                       # number of ReadCleanReq miss cycles
system.l2.ReadCleanReq_miss_latency::total      7360884                       # number of ReadCleanReq miss cycles
system.l2.ReadCleanReq_accesses::.switch_cpus0.inst           36                       # number of ReadCleanReq accesses(hits+misses)
system.l2.ReadCleanReq_accesses::.switch_cpus1.inst           31                       # number of ReadCleanReq accesses(hits+misses)
system.l2.ReadCleanReq_accesses::total             67                       # number of ReadCleanReq accesses(hits+misses)
system.l2.ReadCleanReq_miss_rate::.switch_cpus0.inst     0.972222                       # miss rate for ReadCleanReq accesses
system.l2.ReadCleanReq_miss_rate::.switch_cpus1.inst     0.967742                       # miss rate for ReadCleanReq accesses
system.l2.ReadCleanReq_miss_rate::total      0.970149                       # miss rate for ReadCleanReq accesses
system.l2.ReadCleanReq_avg_miss_latency::.switch_cpus0.inst 123515.400000                       # average ReadCleanReq miss latency
system.l2.ReadCleanReq_avg_miss_latency::.switch_cpus1.inst 101261.500000                       # average ReadCleanReq miss latency
system.l2.ReadCleanReq_avg_miss_latency::total 113244.369231                       # average ReadCleanReq miss latency
system.l2.ReadCleanReq_mshr_misses::.switch_cpus0.inst           35                       # number of ReadCleanReq MSHR misses
system.l2.ReadCleanReq_mshr_misses::.switch_cpus1.inst           30                       # number of ReadCleanReq MSHR misses
system.l2.ReadCleanReq_mshr_misses::total           65                       # number of ReadCleanReq MSHR misses
system.l2.ReadCleanReq_mshr_miss_latency::.switch_cpus0.inst      4023182                       # number of ReadCleanReq MSHR miss cycles
system.l2.ReadCleanReq_mshr_miss_latency::.switch_cpus1.inst      2781235                       # number of ReadCleanReq MSHR miss cycles
system.l2.ReadCleanReq_mshr_miss_latency::total      6804417                       # number of ReadCleanReq MSHR miss cycles
system.l2.ReadCleanReq_mshr_miss_rate::.switch_cpus0.inst     0.972222                       # mshr miss rate for ReadCleanReq accesses
system.l2.ReadCleanReq_mshr_miss_rate::.switch_cpus1.inst     0.967742                       # mshr miss rate for ReadCleanReq accesses
system.l2.ReadCleanReq_mshr_miss_rate::total     0.970149                       # mshr miss rate for ReadCleanReq accesses
system.l2.ReadCleanReq_avg_mshr_miss_latency::.switch_cpus0.inst 114948.057143                       # average ReadCleanReq mshr miss latency
system.l2.ReadCleanReq_avg_mshr_miss_latency::.switch_cpus1.inst 92707.833333                       # average ReadCleanReq mshr miss latency
system.l2.ReadCleanReq_avg_mshr_miss_latency::total 104683.338462                       # average ReadCleanReq mshr miss latency
system.l2.ReadSharedReq_hits::.switch_cpus0.data      8200290                       # number of ReadSharedReq hits
system.l2.ReadSharedReq_hits::.switch_cpus1.data     11213573                       # number of ReadSharedReq hits
system.l2.ReadSharedReq_hits::total          19413863                       # number of ReadSharedReq hits
system.l2.ReadSharedReq_misses::.switch_cpus0.data            1                       # number of ReadSharedReq misses
system.l2.ReadSharedReq_misses::.switch_cpus1.data            4                       # number of ReadSharedReq misses
system.l2.ReadSharedReq_misses::total               5                       # number of ReadSharedReq misses
system.l2.ReadSharedReq_miss_latency::.switch_cpus0.data       111756                       # number of ReadSharedReq miss cycles
system.l2.ReadSharedReq_miss_latency::.switch_cpus1.data       452445                       # number of ReadSharedReq miss cycles
system.l2.ReadSharedReq_miss_latency::total       564201                       # number of ReadSharedReq miss cycles
system.l2.ReadSharedReq_accesses::.switch_cpus0.data      8200291                       # number of ReadSharedReq accesses(hits+misses)
system.l2.ReadSharedReq_accesses::.switch_cpus1.data     11213577                       # number of ReadSharedReq accesses(hits+misses)
system.l2.ReadSharedReq_accesses::total      19413868                       # number of ReadSharedReq accesses(hits+misses)
system.l2.ReadSharedReq_miss_rate::.switch_cpus0.data     0.000000                       # miss rate for ReadSharedReq accesses
system.l2.ReadSharedReq_miss_rate::.switch_cpus1.data     0.000000                       # miss rate for ReadSharedReq accesses
system.l2.ReadSharedReq_miss_rate::total     0.000000                       # miss rate for ReadSharedReq accesses
system.l2.ReadSharedReq_avg_miss_latency::.switch_cpus0.data       111756                       # average ReadSharedReq miss latency
system.l2.ReadSharedReq_avg_miss_latency::.switch_cpus1.data 113111.250000                       # average ReadSharedReq miss latency
system.l2.ReadSharedReq_avg_miss_latency::total 112840.200000                       # average ReadSharedReq miss latency
system.l2.ReadSharedReq_mshr_misses::.switch_cpus0.data            1                       # number of ReadSharedReq MSHR misses
system.l2.ReadSharedReq_mshr_misses::.switch_cpus1.data            4                       # number of ReadSharedReq MSHR misses
system.l2.ReadSharedReq_mshr_misses::total            5                       # number of ReadSharedReq MSHR misses
system.l2.ReadSharedReq_mshr_miss_latency::.switch_cpus0.data       103089                       # number of ReadSharedReq MSHR miss cycles
system.l2.ReadSharedReq_mshr_miss_latency::.switch_cpus1.data       418126                       # number of ReadSharedReq MSHR miss cycles
system.l2.ReadSharedReq_mshr_miss_latency::total       521215                       # number of ReadSharedReq MSHR miss cycles
system.l2.ReadSharedReq_mshr_miss_rate::.switch_cpus0.data     0.000000                       # mshr miss rate for ReadSharedReq accesses
system.l2.ReadSharedReq_mshr_miss_rate::.switch_cpus1.data     0.000000                       # mshr miss rate for ReadSharedReq accesses
system.l2.ReadSharedReq_mshr_miss_rate::total     0.000000                       # mshr miss rate for ReadSharedReq accesses
system.l2.ReadSharedReq_avg_mshr_miss_latency::.switch_cpus0.data       103089                       # average ReadSharedReq mshr miss latency
system.l2.ReadSharedReq_avg_mshr_miss_latency::.switch_cpus1.data 104531.500000                       # average ReadSharedReq mshr miss latency
system.l2.ReadSharedReq_avg_mshr_miss_latency::total       104243                       # average ReadSharedReq mshr miss latency
system.l2.tags.pwrStateResidencyTicks::UNDEFINED 2277542430399                       # Cumulative time (in ticks) in various power states
system.l2.tags.tagsinuse                        32768                       # Cycle average of tags in use
system.l2.tags.total_refs                    51441648                       # Total number of references to valid blocks.
system.l2.tags.sampled_refs                     32905                       # Sample count of references to valid blocks.
system.l2.tags.avg_refs                   1563.338338                       # Average number of references to valid blocks.
system.l2.tags.warmup_cycle                         0                       # Cycle when the warmup percentage was hit.
system.l2.tags.occ_blocks::.writebacks     100.936782                       # Average occupied blocks per requestor
system.l2.tags.occ_blocks::.cpu0.inst              34                       # Average occupied blocks per requestor
system.l2.tags.occ_blocks::.cpu0.data    31225.127837                       # Average occupied blocks per requestor
system.l2.tags.occ_blocks::.cpu1.data            1338                       # Average occupied blocks per requestor
system.l2.tags.occ_blocks::.switch_cpus0.inst    34.964921                       # Average occupied blocks per requestor
system.l2.tags.occ_blocks::.switch_cpus0.data     1.000000                       # Average occupied blocks per requestor
system.l2.tags.occ_blocks::.switch_cpus1.inst    29.971869                       # Average occupied blocks per requestor
system.l2.tags.occ_blocks::.switch_cpus1.data     3.998590                       # Average occupied blocks per requestor
system.l2.tags.occ_percent::.writebacks      0.003080                       # Average percentage of cache occupancy
system.l2.tags.occ_percent::.cpu0.inst       0.001038                       # Average percentage of cache occupancy
system.l2.tags.occ_percent::.cpu0.data       0.952915                       # Average percentage of cache occupancy
system.l2.tags.occ_percent::.cpu1.data       0.040833                       # Average percentage of cache occupancy
system.l2.tags.occ_percent::.switch_cpus0.inst     0.001067                       # Average percentage of cache occupancy
system.l2.tags.occ_percent::.switch_cpus0.data     0.000031                       # Average percentage of cache occupancy
system.l2.tags.occ_percent::.switch_cpus1.inst     0.000915                       # Average percentage of cache occupancy
system.l2.tags.occ_percent::.switch_cpus1.data     0.000122                       # Average percentage of cache occupancy
system.l2.tags.occ_percent::total                   1                       # Average percentage of cache occupancy
system.l2.tags.occ_task_id_blocks::1024         32768                       # Occupied blocks per task id
system.l2.tags.age_task_id_blocks_1024::4        32768                       # Occupied blocks per task id
system.l2.tags.occ_task_id_percent::1024            1                       # Percentage of cache occupancy per task id
system.l2.tags.tag_accesses                 621308537                       # Number of tag accesses
system.l2.tags.data_accesses                621308537                       # Number of data accesses
system.cpu_voltage_domain.voltage                   1                       # Voltage in Volts
system.switch_cpus1.pwrStateResidencyTicks::OFF 2277542430399                       # Cumulative time (in ticks) in various power states
system.switch_cpus1.dtb.walker.pwrStateResidencyTicks::UNDEFINED 2277542430399                       # Cumulative time (in ticks) in various power states
system.switch_cpus1.dtb.stage2_mmu.stage2_tlb.walker.pwrStateResidencyTicks::UNDEFINED 2277542430399                       # Cumulative time (in ticks) in various power states
system.switch_cpus1.itb.walker.pwrStateResidencyTicks::UNDEFINED 2277542430399                       # Cumulative time (in ticks) in various power states
system.switch_cpus1.itb.stage2_mmu.stage2_tlb.walker.pwrStateResidencyTicks::UNDEFINED 2277542430399                       # Cumulative time (in ticks) in various power states
system.cpu_clk_domain.clock                       417                       # Clock period in ticks
system.tol2bus.pwrStateResidencyTicks::UNDEFINED 2277542430399                       # Cumulative time (in ticks) in various power states
system.tol2bus.trans_dist::ReadResp          19413935                       # Transaction distribution
system.tol2bus.trans_dist::WritebackDirty     16626609                       # Transaction distribution
system.tol2bus.trans_dist::WritebackClean           67                       # Transaction distribution
system.tol2bus.trans_dist::CleanEvict         2789349                       # Transaction distribution
system.tol2bus.trans_dist::ReadExReq             1954                       # Transaction distribution
system.tol2bus.trans_dist::ReadExResp            1954                       # Transaction distribution
system.tol2bus.trans_dist::ReadCleanReq            67                       # Transaction distribution
system.tol2bus.trans_dist::ReadSharedReq     19413868                       # Transaction distribution
system.tol2bus.pkt_count_system.cpu0.icache.mem_side::system.l2.cpu_side          108                       # Packet count per connected master and slave (bytes)
system.tol2bus.pkt_count_system.cpu0.dcache.mem_side::system.l2.cpu_side     24605697                       # Packet count per connected master and slave (bytes)
system.tol2bus.pkt_count_system.cpu1.icache.mem_side::system.l2.cpu_side           93                       # Packet count per connected master and slave (bytes)
system.tol2bus.pkt_count_system.cpu1.dcache.mem_side::system.l2.cpu_side     33641768                       # Packet count per connected master and slave (bytes)
system.tol2bus.pkt_count::total              58247666                       # Packet count per connected master and slave (bytes)
system.tol2bus.pkt_size_system.cpu0.icache.mem_side::system.l2.cpu_side         9216                       # Cumulative packet size per connected master and slave (bytes)
system.tol2bus.pkt_size_system.cpu0.dcache.mem_side::system.l2.cpu_side   1881398656                       # Cumulative packet size per connected master and slave (bytes)
system.tol2bus.pkt_size_system.cpu1.icache.mem_side::system.l2.cpu_side         7936                       # Cumulative packet size per connected master and slave (bytes)
system.tol2bus.pkt_size_system.cpu1.dcache.mem_side::system.l2.cpu_side   2732014976                       # Cumulative packet size per connected master and slave (bytes)
system.tol2bus.pkt_size::total             4613430784                       # Cumulative packet size per connected master and slave (bytes)
system.tol2bus.snoops                             137                       # Total snoops (count)
system.tol2bus.snoopTraffic                     17536                       # Total snoop traffic (bytes)
system.tol2bus.snoop_fanout::samples         19416026                       # Request fanout histogram
system.tol2bus.snoop_fanout::mean            0.000000                       # Request fanout histogram
system.tol2bus.snoop_fanout::stdev           0.000321                       # Request fanout histogram
system.tol2bus.snoop_fanout::underflows             0      0.00%      0.00% # Request fanout histogram
system.tol2bus.snoop_fanout::0               19416024    100.00%    100.00% # Request fanout histogram
system.tol2bus.snoop_fanout::1                      2      0.00%    100.00% # Request fanout histogram
system.tol2bus.snoop_fanout::2                      0      0.00%    100.00% # Request fanout histogram
system.tol2bus.snoop_fanout::3                      0      0.00%    100.00% # Request fanout histogram
system.tol2bus.snoop_fanout::4                      0      0.00%    100.00% # Request fanout histogram
system.tol2bus.snoop_fanout::overflows              0      0.00%    100.00% # Request fanout histogram
system.tol2bus.snoop_fanout::min_value              0                       # Request fanout histogram
system.tol2bus.snoop_fanout::max_value              1                       # Request fanout histogram
system.tol2bus.snoop_fanout::total           19416026                       # Request fanout histogram
system.tol2bus.reqLayer0.occupancy        43925918061                       # Layer occupancy (ticks)
system.tol2bus.reqLayer0.utilization              3.3                       # Layer utilization (%)
system.tol2bus.respLayer5.occupancy       23381132207                       # Layer occupancy (ticks)
system.tol2bus.respLayer5.utilization             1.8                       # Layer utilization (%)
system.tol2bus.respLayer4.occupancy             64635                       # Layer occupancy (ticks)
system.tol2bus.respLayer4.utilization             0.0                       # Layer utilization (%)
system.tol2bus.respLayer1.occupancy       17107946135                       # Layer occupancy (ticks)
system.tol2bus.respLayer1.utilization             1.3                       # Layer utilization (%)
system.tol2bus.respLayer0.occupancy             75060                       # Layer occupancy (ticks)
system.tol2bus.respLayer0.utilization             0.0                       # Layer utilization (%)

---------- End Simulation Statistics   ----------
