
---------- Begin Simulation Statistics ----------
sim_seconds                                  0.109554                       # Number of seconds simulated
sim_ticks                                109553817162                       # Number of ticks simulated
final_tick                               636655880070                       # Number of ticks from beginning of simulation (restored from checkpoints and never reset)
sim_freq                                 1000000000000                       # Frequency of simulated ticks
host_inst_rate                                 114867                       # Simulator instruction rate (inst/s)
host_op_rate                                   144099                       # Simulator op (including micro ops) rate (op/s)
host_tick_rate                                1419282                       # Simulator tick rate (ticks/s)
host_mem_usage                               67372496                       # Number of bytes of host memory used
host_seconds                                 77189.59                       # Real time elapsed on the host
sim_insts                                  8866566024                       # Number of instructions simulated
sim_ops                                   11122937998                       # Number of ops (including micro ops) simulated
system.physmem.bytes_read::switch_cpus0.inst         4608                       # Number of bytes read from this memory
system.physmem.bytes_read::switch_cpus0.data      1801600                       # Number of bytes read from this memory
system.physmem.bytes_read::switch_cpus1.inst         5120                       # Number of bytes read from this memory
system.physmem.bytes_read::switch_cpus1.data      1111168                       # Number of bytes read from this memory
system.physmem.bytes_read::switch_cpus2.inst         5248                       # Number of bytes read from this memory
system.physmem.bytes_read::switch_cpus2.data      3628416                       # Number of bytes read from this memory
system.physmem.bytes_read::switch_cpus3.inst         4736                       # Number of bytes read from this memory
system.physmem.bytes_read::switch_cpus3.data      3033984                       # Number of bytes read from this memory
system.physmem.bytes_read::switch_cpus4.inst         5248                       # Number of bytes read from this memory
system.physmem.bytes_read::switch_cpus4.data      1111552                       # Number of bytes read from this memory
system.physmem.bytes_read::switch_cpus5.inst         4864                       # Number of bytes read from this memory
system.physmem.bytes_read::switch_cpus5.data      3045632                       # Number of bytes read from this memory
system.physmem.bytes_read::switch_cpus6.inst         4352                       # Number of bytes read from this memory
system.physmem.bytes_read::switch_cpus6.data       826496                       # Number of bytes read from this memory
system.physmem.bytes_read::switch_cpus7.inst         4352                       # Number of bytes read from this memory
system.physmem.bytes_read::switch_cpus7.data       826880                       # Number of bytes read from this memory
system.physmem.bytes_read::total             15424256                       # Number of bytes read from this memory
system.physmem.bytes_inst_read::switch_cpus0.inst         4608                       # Number of instructions bytes read from this memory
system.physmem.bytes_inst_read::switch_cpus1.inst         5120                       # Number of instructions bytes read from this memory
system.physmem.bytes_inst_read::switch_cpus2.inst         5248                       # Number of instructions bytes read from this memory
system.physmem.bytes_inst_read::switch_cpus3.inst         4736                       # Number of instructions bytes read from this memory
system.physmem.bytes_inst_read::switch_cpus4.inst         5248                       # Number of instructions bytes read from this memory
system.physmem.bytes_inst_read::switch_cpus5.inst         4864                       # Number of instructions bytes read from this memory
system.physmem.bytes_inst_read::switch_cpus6.inst         4352                       # Number of instructions bytes read from this memory
system.physmem.bytes_inst_read::switch_cpus7.inst         4352                       # Number of instructions bytes read from this memory
system.physmem.bytes_inst_read::total           38528                       # Number of instructions bytes read from this memory
system.physmem.bytes_written::writebacks      5001728                       # Number of bytes written to this memory
system.physmem.bytes_written::total           5001728                       # Number of bytes written to this memory
system.physmem.num_reads::switch_cpus0.inst           36                       # Number of read requests responded to by this memory
system.physmem.num_reads::switch_cpus0.data        14075                       # Number of read requests responded to by this memory
system.physmem.num_reads::switch_cpus1.inst           40                       # Number of read requests responded to by this memory
system.physmem.num_reads::switch_cpus1.data         8681                       # Number of read requests responded to by this memory
system.physmem.num_reads::switch_cpus2.inst           41                       # Number of read requests responded to by this memory
system.physmem.num_reads::switch_cpus2.data        28347                       # Number of read requests responded to by this memory
system.physmem.num_reads::switch_cpus3.inst           37                       # Number of read requests responded to by this memory
system.physmem.num_reads::switch_cpus3.data        23703                       # Number of read requests responded to by this memory
system.physmem.num_reads::switch_cpus4.inst           41                       # Number of read requests responded to by this memory
system.physmem.num_reads::switch_cpus4.data         8684                       # Number of read requests responded to by this memory
system.physmem.num_reads::switch_cpus5.inst           38                       # Number of read requests responded to by this memory
system.physmem.num_reads::switch_cpus5.data        23794                       # Number of read requests responded to by this memory
system.physmem.num_reads::switch_cpus6.inst           34                       # Number of read requests responded to by this memory
system.physmem.num_reads::switch_cpus6.data         6457                       # Number of read requests responded to by this memory
system.physmem.num_reads::switch_cpus7.inst           34                       # Number of read requests responded to by this memory
system.physmem.num_reads::switch_cpus7.data         6460                       # Number of read requests responded to by this memory
system.physmem.num_reads::total                120502                       # Number of read requests responded to by this memory
system.physmem.num_writes::writebacks           39076                       # Number of write requests responded to by this memory
system.physmem.num_writes::functional               0                       # Number of write requests responded to by this memory
system.physmem.num_writes::interrupt                0                       # Number of write requests responded to by this memory
system.physmem.num_writes::switch_cpus0.dtb.walker            0                       # Number of write requests responded to by this memory
system.physmem.num_writes::switch_cpus0.itb.walker            0                       # Number of write requests responded to by this memory
system.physmem.num_writes::switch_cpus0.inst            0                       # Number of write requests responded to by this memory
system.physmem.num_writes::switch_cpus0.data            0                       # Number of write requests responded to by this memory
system.physmem.num_writes::switch_cpus1.dtb.walker            0                       # Number of write requests responded to by this memory
system.physmem.num_writes::switch_cpus1.itb.walker            0                       # Number of write requests responded to by this memory
system.physmem.num_writes::switch_cpus1.inst            0                       # Number of write requests responded to by this memory
system.physmem.num_writes::switch_cpus1.data            0                       # Number of write requests responded to by this memory
system.physmem.num_writes::switch_cpus2.dtb.walker            0                       # Number of write requests responded to by this memory
system.physmem.num_writes::switch_cpus2.itb.walker            0                       # Number of write requests responded to by this memory
system.physmem.num_writes::switch_cpus2.inst            0                       # Number of write requests responded to by this memory
system.physmem.num_writes::switch_cpus2.data            0                       # Number of write requests responded to by this memory
system.physmem.num_writes::switch_cpus3.dtb.walker            0                       # Number of write requests responded to by this memory
system.physmem.num_writes::switch_cpus3.itb.walker            0                       # Number of write requests responded to by this memory
system.physmem.num_writes::switch_cpus3.inst            0                       # Number of write requests responded to by this memory
system.physmem.num_writes::switch_cpus3.data            0                       # Number of write requests responded to by this memory
system.physmem.num_writes::switch_cpus4.dtb.walker            0                       # Number of write requests responded to by this memory
system.physmem.num_writes::switch_cpus4.itb.walker            0                       # Number of write requests responded to by this memory
system.physmem.num_writes::switch_cpus4.inst            0                       # Number of write requests responded to by this memory
system.physmem.num_writes::switch_cpus4.data            0                       # Number of write requests responded to by this memory
system.physmem.num_writes::switch_cpus5.dtb.walker            0                       # Number of write requests responded to by this memory
system.physmem.num_writes::switch_cpus5.itb.walker            0                       # Number of write requests responded to by this memory
system.physmem.num_writes::switch_cpus5.inst            0                       # Number of write requests responded to by this memory
system.physmem.num_writes::switch_cpus5.data            0                       # Number of write requests responded to by this memory
system.physmem.num_writes::switch_cpus6.dtb.walker            0                       # Number of write requests responded to by this memory
system.physmem.num_writes::switch_cpus6.itb.walker            0                       # Number of write requests responded to by this memory
system.physmem.num_writes::switch_cpus6.inst            0                       # Number of write requests responded to by this memory
system.physmem.num_writes::switch_cpus6.data            0                       # Number of write requests responded to by this memory
system.physmem.num_writes::switch_cpus7.dtb.walker            0                       # Number of write requests responded to by this memory
system.physmem.num_writes::switch_cpus7.itb.walker            0                       # Number of write requests responded to by this memory
system.physmem.num_writes::switch_cpus7.inst            0                       # Number of write requests responded to by this memory
system.physmem.num_writes::switch_cpus7.data            0                       # Number of write requests responded to by this memory
system.physmem.num_writes::cpu0.dtb.walker            0                       # Number of write requests responded to by this memory
system.physmem.num_writes::cpu0.itb.walker            0                       # Number of write requests responded to by this memory
system.physmem.num_writes::cpu0.inst                0                       # Number of write requests responded to by this memory
system.physmem.num_writes::cpu0.data                0                       # Number of write requests responded to by this memory
system.physmem.num_writes::cpu1.dtb.walker            0                       # Number of write requests responded to by this memory
system.physmem.num_writes::cpu1.itb.walker            0                       # Number of write requests responded to by this memory
system.physmem.num_writes::cpu1.inst                0                       # Number of write requests responded to by this memory
system.physmem.num_writes::cpu1.data                0                       # Number of write requests responded to by this memory
system.physmem.num_writes::cpu2.dtb.walker            0                       # Number of write requests responded to by this memory
system.physmem.num_writes::cpu2.itb.walker            0                       # Number of write requests responded to by this memory
system.physmem.num_writes::cpu2.inst                0                       # Number of write requests responded to by this memory
system.physmem.num_writes::cpu2.data                0                       # Number of write requests responded to by this memory
system.physmem.num_writes::cpu3.dtb.walker            0                       # Number of write requests responded to by this memory
system.physmem.num_writes::cpu3.itb.walker            0                       # Number of write requests responded to by this memory
system.physmem.num_writes::cpu3.inst                0                       # Number of write requests responded to by this memory
system.physmem.num_writes::cpu3.data                0                       # Number of write requests responded to by this memory
system.physmem.num_writes::cpu4.dtb.walker            0                       # Number of write requests responded to by this memory
system.physmem.num_writes::cpu4.itb.walker            0                       # Number of write requests responded to by this memory
system.physmem.num_writes::cpu4.inst                0                       # Number of write requests responded to by this memory
system.physmem.num_writes::cpu4.data                0                       # Number of write requests responded to by this memory
system.physmem.num_writes::cpu5.dtb.walker            0                       # Number of write requests responded to by this memory
system.physmem.num_writes::cpu5.itb.walker            0                       # Number of write requests responded to by this memory
system.physmem.num_writes::cpu5.inst                0                       # Number of write requests responded to by this memory
system.physmem.num_writes::cpu5.data                0                       # Number of write requests responded to by this memory
system.physmem.num_writes::cpu6.dtb.walker            0                       # Number of write requests responded to by this memory
system.physmem.num_writes::cpu6.itb.walker            0                       # Number of write requests responded to by this memory
system.physmem.num_writes::cpu6.inst                0                       # Number of write requests responded to by this memory
system.physmem.num_writes::cpu6.data                0                       # Number of write requests responded to by this memory
system.physmem.num_writes::cpu7.dtb.walker            0                       # Number of write requests responded to by this memory
system.physmem.num_writes::cpu7.itb.walker            0                       # Number of write requests responded to by this memory
system.physmem.num_writes::cpu7.inst                0                       # Number of write requests responded to by this memory
system.physmem.num_writes::cpu7.data                0                       # Number of write requests responded to by this memory
system.physmem.num_writes::total                39076                       # Number of write requests responded to by this memory
system.physmem.bw_read::switch_cpus0.inst        42062                       # Total read bandwidth from this memory (bytes/s)
system.physmem.bw_read::switch_cpus0.data     16444886                       # Total read bandwidth from this memory (bytes/s)
system.physmem.bw_read::switch_cpus1.inst        46735                       # Total read bandwidth from this memory (bytes/s)
system.physmem.bw_read::switch_cpus1.data     10142668                       # Total read bandwidth from this memory (bytes/s)
system.physmem.bw_read::switch_cpus2.inst        47903                       # Total read bandwidth from this memory (bytes/s)
system.physmem.bw_read::switch_cpus2.data     33119941                       # Total read bandwidth from this memory (bytes/s)
system.physmem.bw_read::switch_cpus3.inst        43230                       # Total read bandwidth from this memory (bytes/s)
system.physmem.bw_read::switch_cpus3.data     27694005                       # Total read bandwidth from this memory (bytes/s)
system.physmem.bw_read::switch_cpus4.inst        47903                       # Total read bandwidth from this memory (bytes/s)
system.physmem.bw_read::switch_cpus4.data     10146173                       # Total read bandwidth from this memory (bytes/s)
system.physmem.bw_read::switch_cpus5.inst        44398                       # Total read bandwidth from this memory (bytes/s)
system.physmem.bw_read::switch_cpus5.data     27800328                       # Total read bandwidth from this memory (bytes/s)
system.physmem.bw_read::switch_cpus6.inst        39725                       # Total read bandwidth from this memory (bytes/s)
system.physmem.bw_read::switch_cpus6.data      7544201                       # Total read bandwidth from this memory (bytes/s)
system.physmem.bw_read::switch_cpus7.inst        39725                       # Total read bandwidth from this memory (bytes/s)
system.physmem.bw_read::switch_cpus7.data      7547706                       # Total read bandwidth from this memory (bytes/s)
system.physmem.bw_read::total               140791589                       # Total read bandwidth from this memory (bytes/s)
system.physmem.bw_inst_read::switch_cpus0.inst        42062                       # Instruction read bandwidth from this memory (bytes/s)
system.physmem.bw_inst_read::switch_cpus1.inst        46735                       # Instruction read bandwidth from this memory (bytes/s)
system.physmem.bw_inst_read::switch_cpus2.inst        47903                       # Instruction read bandwidth from this memory (bytes/s)
system.physmem.bw_inst_read::switch_cpus3.inst        43230                       # Instruction read bandwidth from this memory (bytes/s)
system.physmem.bw_inst_read::switch_cpus4.inst        47903                       # Instruction read bandwidth from this memory (bytes/s)
system.physmem.bw_inst_read::switch_cpus5.inst        44398                       # Instruction read bandwidth from this memory (bytes/s)
system.physmem.bw_inst_read::switch_cpus6.inst        39725                       # Instruction read bandwidth from this memory (bytes/s)
system.physmem.bw_inst_read::switch_cpus7.inst        39725                       # Instruction read bandwidth from this memory (bytes/s)
system.physmem.bw_inst_read::total             351681                       # Instruction read bandwidth from this memory (bytes/s)
system.physmem.bw_write::writebacks          45655442                       # Write bandwidth from this memory (bytes/s)
system.physmem.bw_write::total               45655442                       # Write bandwidth from this memory (bytes/s)
system.physmem.bw_total::writebacks          45655442                       # Total bandwidth to/from this memory (bytes/s)
system.physmem.bw_total::switch_cpus0.inst        42062                       # Total bandwidth to/from this memory (bytes/s)
system.physmem.bw_total::switch_cpus0.data     16444886                       # Total bandwidth to/from this memory (bytes/s)
system.physmem.bw_total::switch_cpus1.inst        46735                       # Total bandwidth to/from this memory (bytes/s)
system.physmem.bw_total::switch_cpus1.data     10142668                       # Total bandwidth to/from this memory (bytes/s)
system.physmem.bw_total::switch_cpus2.inst        47903                       # Total bandwidth to/from this memory (bytes/s)
system.physmem.bw_total::switch_cpus2.data     33119941                       # Total bandwidth to/from this memory (bytes/s)
system.physmem.bw_total::switch_cpus3.inst        43230                       # Total bandwidth to/from this memory (bytes/s)
system.physmem.bw_total::switch_cpus3.data     27694005                       # Total bandwidth to/from this memory (bytes/s)
system.physmem.bw_total::switch_cpus4.inst        47903                       # Total bandwidth to/from this memory (bytes/s)
system.physmem.bw_total::switch_cpus4.data     10146173                       # Total bandwidth to/from this memory (bytes/s)
system.physmem.bw_total::switch_cpus5.inst        44398                       # Total bandwidth to/from this memory (bytes/s)
system.physmem.bw_total::switch_cpus5.data     27800328                       # Total bandwidth to/from this memory (bytes/s)
system.physmem.bw_total::switch_cpus6.inst        39725                       # Total bandwidth to/from this memory (bytes/s)
system.physmem.bw_total::switch_cpus6.data      7544201                       # Total bandwidth to/from this memory (bytes/s)
system.physmem.bw_total::switch_cpus7.inst        39725                       # Total bandwidth to/from this memory (bytes/s)
system.physmem.bw_total::switch_cpus7.data      7547706                       # Total bandwidth to/from this memory (bytes/s)
system.physmem.bw_total::total              186447032                       # Total bandwidth to/from this memory (bytes/s)
system.switch_cpus0.dtb.inst_hits                   0                       # ITB inst hits
system.switch_cpus0.dtb.inst_misses                 0                       # ITB inst misses
system.switch_cpus0.dtb.read_hits                   0                       # DTB read hits
system.switch_cpus0.dtb.read_misses                 0                       # DTB read misses
system.switch_cpus0.dtb.write_hits                  0                       # DTB write hits
system.switch_cpus0.dtb.write_misses                0                       # DTB write misses
system.switch_cpus0.dtb.flush_tlb                   0                       # Number of times complete TLB was flushed
system.switch_cpus0.dtb.flush_tlb_mva               0                       # Number of times TLB was flushed by MVA
system.switch_cpus0.dtb.flush_tlb_mva_asid            0                       # Number of times TLB was flushed by MVA & ASID
system.switch_cpus0.dtb.flush_tlb_asid              0                       # Number of times TLB was flushed by ASID
system.switch_cpus0.dtb.flush_entries               0                       # Number of entries that have been flushed from TLB
system.switch_cpus0.dtb.align_faults                0                       # Number of TLB faults due to alignment restrictions
system.switch_cpus0.dtb.prefetch_faults             0                       # Number of TLB faults due to prefetch
system.switch_cpus0.dtb.domain_faults               0                       # Number of TLB faults due to domain restrictions
system.switch_cpus0.dtb.perms_faults                0                       # Number of TLB faults due to permissions restrictions
system.switch_cpus0.dtb.read_accesses               0                       # DTB read accesses
system.switch_cpus0.dtb.write_accesses              0                       # DTB write accesses
system.switch_cpus0.dtb.inst_accesses               0                       # ITB inst accesses
system.switch_cpus0.dtb.hits                        0                       # DTB hits
system.switch_cpus0.dtb.misses                      0                       # DTB misses
system.switch_cpus0.dtb.accesses                    0                       # DTB accesses
system.switch_cpus0.itb.inst_hits                   0                       # ITB inst hits
system.switch_cpus0.itb.inst_misses                 0                       # ITB inst misses
system.switch_cpus0.itb.read_hits                   0                       # DTB read hits
system.switch_cpus0.itb.read_misses                 0                       # DTB read misses
system.switch_cpus0.itb.write_hits                  0                       # DTB write hits
system.switch_cpus0.itb.write_misses                0                       # DTB write misses
system.switch_cpus0.itb.flush_tlb                   0                       # Number of times complete TLB was flushed
system.switch_cpus0.itb.flush_tlb_mva               0                       # Number of times TLB was flushed by MVA
system.switch_cpus0.itb.flush_tlb_mva_asid            0                       # Number of times TLB was flushed by MVA & ASID
system.switch_cpus0.itb.flush_tlb_asid              0                       # Number of times TLB was flushed by ASID
system.switch_cpus0.itb.flush_entries               0                       # Number of entries that have been flushed from TLB
system.switch_cpus0.itb.align_faults                0                       # Number of TLB faults due to alignment restrictions
system.switch_cpus0.itb.prefetch_faults             0                       # Number of TLB faults due to prefetch
system.switch_cpus0.itb.domain_faults               0                       # Number of TLB faults due to domain restrictions
system.switch_cpus0.itb.perms_faults                0                       # Number of TLB faults due to permissions restrictions
system.switch_cpus0.itb.read_accesses               0                       # DTB read accesses
system.switch_cpus0.itb.write_accesses              0                       # DTB write accesses
system.switch_cpus0.itb.inst_accesses               0                       # ITB inst accesses
system.switch_cpus0.itb.hits                        0                       # DTB hits
system.switch_cpus0.itb.misses                      0                       # DTB misses
system.switch_cpus0.itb.accesses                    0                       # DTB accesses
system.cpu0.workload.num_syscalls                  52                       # Number of system calls
system.switch_cpus0.numCycles               262718987                       # number of cpu cycles simulated
system.switch_cpus0.numWorkItemsStarted             0                       # number of work items this cpu started
system.switch_cpus0.numWorkItemsCompleted            0                       # number of work items this cpu completed
system.switch_cpus0.BPredUnit.lookups        20698283                       # Number of BP lookups
system.switch_cpus0.BPredUnit.condPredicted     16974318                       # Number of conditional branches predicted
system.switch_cpus0.BPredUnit.condIncorrect      2024718                       # Number of conditional branches incorrect
system.switch_cpus0.BPredUnit.BTBLookups      8550420                       # Number of BTB lookups
system.switch_cpus0.BPredUnit.BTBHits         8090170                       # Number of BTB hits
system.switch_cpus0.BPredUnit.BTBCorrect            0                       # Number of correct BTB predictions (this stat may not work properly.
system.switch_cpus0.BPredUnit.usedRAS         2122937                       # Number of times the RAS was used to get a target.
system.switch_cpus0.BPredUnit.RASInCorrect        90564                       # Number of incorrect RAS predictions.
system.switch_cpus0.fetch.icacheStallCycles    197438837                       # Number of cycles fetch is stalled on an Icache miss
system.switch_cpus0.fetch.Insts             117639485                       # Number of instructions fetch has processed
system.switch_cpus0.fetch.Branches           20698283                       # Number of branches that fetch encountered
system.switch_cpus0.fetch.predictedBranches     10213107                       # Number of branches that fetch has predicted taken
system.switch_cpus0.fetch.Cycles             25876937                       # Number of cycles fetch has run and was not squashing or blocked
system.switch_cpus0.fetch.SquashCycles        5751335                       # Number of cycles fetch has spent squashing
system.switch_cpus0.fetch.BlockedCycles      10573213                       # Number of cycles fetch has spent blocked
system.switch_cpus0.fetch.CacheLines         12163563                       # Number of cache lines fetched
system.switch_cpus0.fetch.IcacheSquashes      2010620                       # Number of outstanding Icache misses that were squashed
system.switch_cpus0.fetch.rateDist::samples    237583049                       # Number of instructions fetched each cycle (Total)
system.switch_cpus0.fetch.rateDist::mean     0.605447                       # Number of instructions fetched each cycle (Total)
system.switch_cpus0.fetch.rateDist::stdev     1.951899                       # Number of instructions fetched each cycle (Total)
system.switch_cpus0.fetch.rateDist::underflows            0      0.00%      0.00% # Number of instructions fetched each cycle (Total)
system.switch_cpus0.fetch.rateDist::0       211706112     89.11%     89.11% # Number of instructions fetched each cycle (Total)
system.switch_cpus0.fetch.rateDist::1         2803155      1.18%     90.29% # Number of instructions fetched each cycle (Total)
system.switch_cpus0.fetch.rateDist::2         3240592      1.36%     91.65% # Number of instructions fetched each cycle (Total)
system.switch_cpus0.fetch.rateDist::3         1782704      0.75%     92.40% # Number of instructions fetched each cycle (Total)
system.switch_cpus0.fetch.rateDist::4         2066667      0.87%     93.27% # Number of instructions fetched each cycle (Total)
system.switch_cpus0.fetch.rateDist::5         1128176      0.47%     93.75% # Number of instructions fetched each cycle (Total)
system.switch_cpus0.fetch.rateDist::6          767724      0.32%     94.07% # Number of instructions fetched each cycle (Total)
system.switch_cpus0.fetch.rateDist::7         2005733      0.84%     94.91% # Number of instructions fetched each cycle (Total)
system.switch_cpus0.fetch.rateDist::8        12082186      5.09%    100.00% # Number of instructions fetched each cycle (Total)
system.switch_cpus0.fetch.rateDist::overflows            0      0.00%    100.00% # Number of instructions fetched each cycle (Total)
system.switch_cpus0.fetch.rateDist::min_value            0                       # Number of instructions fetched each cycle (Total)
system.switch_cpus0.fetch.rateDist::max_value            8                       # Number of instructions fetched each cycle (Total)
system.switch_cpus0.fetch.rateDist::total    237583049                       # Number of instructions fetched each cycle (Total)
system.switch_cpus0.fetch.branchRate         0.078785                       # Number of branch fetches per cycle
system.switch_cpus0.fetch.rate               0.447777                       # Number of inst fetches per cycle
system.switch_cpus0.decode.IdleCycles       195850881                       # Number of cycles decode is idle
system.switch_cpus0.decode.BlockedCycles     12191652                       # Number of cycles decode is blocked
system.switch_cpus0.decode.RunCycles         25670067                       # Number of cycles decode is running
system.switch_cpus0.decode.UnblockCycles       195264                       # Number of cycles decode is unblocking
system.switch_cpus0.decode.SquashCycles       3675179                       # Number of cycles decode is squashing
system.switch_cpus0.decode.BranchResolved      3359556                       # Number of times decode resolved a branch
system.switch_cpus0.decode.BranchMispred        18884                       # Number of times decode detected a branch misprediction
system.switch_cpus0.decode.DecodedInsts     143612868                       # Number of instructions handled by decode
system.switch_cpus0.decode.SquashedInsts        93527                       # Number of squashed instructions handled by decode
system.switch_cpus0.rename.SquashCycles       3675179                       # Number of cycles rename is squashing
system.switch_cpus0.rename.IdleCycles       196155646                       # Number of cycles rename is idle
system.switch_cpus0.rename.BlockCycles        4422932                       # Number of cycles rename is blocking
system.switch_cpus0.rename.serializeStallCycles      6905695                       # count of cycles rename stalled for serializing inst
system.switch_cpus0.rename.RunCycles         25571940                       # Number of cycles rename is running
system.switch_cpus0.rename.UnblockCycles       851651                       # Number of cycles rename is unblocking
system.switch_cpus0.rename.RenamedInsts     143524627                       # Number of instructions processed by rename
system.switch_cpus0.rename.ROBFullEvents          232                       # Number of times rename has blocked due to ROB full
system.switch_cpus0.rename.IQFullEvents        227187                       # Number of times rename has blocked due to IQ full
system.switch_cpus0.rename.LSQFullEvents       391969                       # Number of times rename has blocked due to LSQ full
system.switch_cpus0.rename.RenamedOperands    199442780                       # Number of destination operands rename has renamed
system.switch_cpus0.rename.RenameLookups    668282331                       # Number of register rename lookups that rename has made
system.switch_cpus0.rename.int_rename_lookups    668282331                       # Number of integer rename lookups
system.switch_cpus0.rename.CommittedMaps    170291692                       # Number of HB maps that are committed
system.switch_cpus0.rename.UndoneMaps        29151048                       # Number of HB maps that are undone due to squashing
system.switch_cpus0.rename.serializingInsts        37398                       # count of serializing insts renamed
system.switch_cpus0.rename.tempSerializingInsts        20773                       # count of temporary serializing insts renamed
system.switch_cpus0.rename.skidInsts          2276230                       # count of insts added to the skid buffer
system.switch_cpus0.memDep0.insertedLoads     13702757                       # Number of loads inserted to the mem dependence unit.
system.switch_cpus0.memDep0.insertedStores      7465155                       # Number of stores inserted to the mem dependence unit.
system.switch_cpus0.memDep0.conflictingLoads       197789                       # Number of conflicting loads.
system.switch_cpus0.memDep0.conflictingStores      1658674                       # Number of conflicting stores.
system.switch_cpus0.iq.iqInstsAdded         143303014                       # Number of instructions added to the IQ (excludes non-spec)
system.switch_cpus0.iq.iqNonSpecInstsAdded        37474                       # Number of non-speculative instructions added to the IQ
system.switch_cpus0.iq.iqInstsIssued        135400037                       # Number of instructions issued
system.switch_cpus0.iq.iqSquashedInstsIssued       189968                       # Number of squashed instructions issued
system.switch_cpus0.iq.iqSquashedInstsExamined     17935873                       # Number of squashed instructions iterated over during squash; mainly for profiling
system.switch_cpus0.iq.iqSquashedOperandsExamined     41545932                       # Number of squashed operands that are examined and possibly removed from graph
system.switch_cpus0.iq.iqSquashedNonSpecRemoved         4024                       # Number of squashed non-spec instructions that were removed
system.switch_cpus0.iq.issued_per_cycle::samples    237583049                       # Number of insts issued each cycle
system.switch_cpus0.iq.issued_per_cycle::mean     0.569906                       # Number of insts issued each cycle
system.switch_cpus0.iq.issued_per_cycle::stdev     1.260547                       # Number of insts issued each cycle
system.switch_cpus0.iq.issued_per_cycle::underflows            0      0.00%      0.00% # Number of insts issued each cycle
system.switch_cpus0.iq.issued_per_cycle::0    180527546     75.99%     75.99% # Number of insts issued each cycle
system.switch_cpus0.iq.issued_per_cycle::1     22953219      9.66%     85.65% # Number of insts issued each cycle
system.switch_cpus0.iq.issued_per_cycle::2     12322042      5.19%     90.83% # Number of insts issued each cycle
system.switch_cpus0.iq.issued_per_cycle::3      8537610      3.59%     94.43% # Number of insts issued each cycle
system.switch_cpus0.iq.issued_per_cycle::4      7463964      3.14%     97.57% # Number of insts issued each cycle
system.switch_cpus0.iq.issued_per_cycle::5      3823429      1.61%     99.18% # Number of insts issued each cycle
system.switch_cpus0.iq.issued_per_cycle::6       915271      0.39%     99.56% # Number of insts issued each cycle
system.switch_cpus0.iq.issued_per_cycle::7       594467      0.25%     99.81% # Number of insts issued each cycle
system.switch_cpus0.iq.issued_per_cycle::8       445501      0.19%    100.00% # Number of insts issued each cycle
system.switch_cpus0.iq.issued_per_cycle::overflows            0      0.00%    100.00% # Number of insts issued each cycle
system.switch_cpus0.iq.issued_per_cycle::min_value            0                       # Number of insts issued each cycle
system.switch_cpus0.iq.issued_per_cycle::max_value            8                       # Number of insts issued each cycle
system.switch_cpus0.iq.issued_per_cycle::total    237583049                       # Number of insts issued each cycle
system.switch_cpus0.iq.fu_full::No_OpClass            0      0.00%      0.00% # attempts to use FU when none available
system.switch_cpus0.iq.fu_full::IntAlu          35428     12.16%     12.16% # attempts to use FU when none available
system.switch_cpus0.iq.fu_full::IntMult             0      0.00%     12.16% # attempts to use FU when none available
system.switch_cpus0.iq.fu_full::IntDiv              0      0.00%     12.16% # attempts to use FU when none available
system.switch_cpus0.iq.fu_full::FloatAdd            0      0.00%     12.16% # attempts to use FU when none available
system.switch_cpus0.iq.fu_full::FloatCmp            0      0.00%     12.16% # attempts to use FU when none available
system.switch_cpus0.iq.fu_full::FloatCvt            0      0.00%     12.16% # attempts to use FU when none available
system.switch_cpus0.iq.fu_full::FloatMult            0      0.00%     12.16% # attempts to use FU when none available
system.switch_cpus0.iq.fu_full::FloatDiv            0      0.00%     12.16% # attempts to use FU when none available
system.switch_cpus0.iq.fu_full::FloatSqrt            0      0.00%     12.16% # attempts to use FU when none available
system.switch_cpus0.iq.fu_full::SimdAdd             0      0.00%     12.16% # attempts to use FU when none available
system.switch_cpus0.iq.fu_full::SimdAddAcc            0      0.00%     12.16% # attempts to use FU when none available
system.switch_cpus0.iq.fu_full::SimdAlu             0      0.00%     12.16% # attempts to use FU when none available
system.switch_cpus0.iq.fu_full::SimdCmp             0      0.00%     12.16% # attempts to use FU when none available
system.switch_cpus0.iq.fu_full::SimdCvt             0      0.00%     12.16% # attempts to use FU when none available
system.switch_cpus0.iq.fu_full::SimdMisc            0      0.00%     12.16% # attempts to use FU when none available
system.switch_cpus0.iq.fu_full::SimdMult            0      0.00%     12.16% # attempts to use FU when none available
system.switch_cpus0.iq.fu_full::SimdMultAcc            0      0.00%     12.16% # attempts to use FU when none available
system.switch_cpus0.iq.fu_full::SimdShift            0      0.00%     12.16% # attempts to use FU when none available
system.switch_cpus0.iq.fu_full::SimdShiftAcc            0      0.00%     12.16% # attempts to use FU when none available
system.switch_cpus0.iq.fu_full::SimdSqrt            0      0.00%     12.16% # attempts to use FU when none available
system.switch_cpus0.iq.fu_full::SimdFloatAdd            0      0.00%     12.16% # attempts to use FU when none available
system.switch_cpus0.iq.fu_full::SimdFloatAlu            0      0.00%     12.16% # attempts to use FU when none available
system.switch_cpus0.iq.fu_full::SimdFloatCmp            0      0.00%     12.16% # attempts to use FU when none available
system.switch_cpus0.iq.fu_full::SimdFloatCvt            0      0.00%     12.16% # attempts to use FU when none available
system.switch_cpus0.iq.fu_full::SimdFloatDiv            0      0.00%     12.16% # attempts to use FU when none available
system.switch_cpus0.iq.fu_full::SimdFloatMisc            0      0.00%     12.16% # attempts to use FU when none available
system.switch_cpus0.iq.fu_full::SimdFloatMult            0      0.00%     12.16% # attempts to use FU when none available
system.switch_cpus0.iq.fu_full::SimdFloatMultAcc            0      0.00%     12.16% # attempts to use FU when none available
system.switch_cpus0.iq.fu_full::SimdFloatSqrt            0      0.00%     12.16% # attempts to use FU when none available
system.switch_cpus0.iq.fu_full::MemRead        124996     42.89%     55.05% # attempts to use FU when none available
system.switch_cpus0.iq.fu_full::MemWrite       130983     44.95%    100.00% # attempts to use FU when none available
system.switch_cpus0.iq.fu_full::IprAccess            0      0.00%    100.00% # attempts to use FU when none available
system.switch_cpus0.iq.fu_full::InstPrefetch            0      0.00%    100.00% # attempts to use FU when none available
system.switch_cpus0.iq.FU_type_0::No_OpClass            0      0.00%      0.00% # Type of FU issued
system.switch_cpus0.iq.FU_type_0::IntAlu    113333902     83.70%     83.70% # Type of FU issued
system.switch_cpus0.iq.FU_type_0::IntMult      2117957      1.56%     85.27% # Type of FU issued
system.switch_cpus0.iq.FU_type_0::IntDiv            0      0.00%     85.27% # Type of FU issued
system.switch_cpus0.iq.FU_type_0::FloatAdd            0      0.00%     85.27% # Type of FU issued
system.switch_cpus0.iq.FU_type_0::FloatCmp            0      0.00%     85.27% # Type of FU issued
system.switch_cpus0.iq.FU_type_0::FloatCvt            0      0.00%     85.27% # Type of FU issued
system.switch_cpus0.iq.FU_type_0::FloatMult            0      0.00%     85.27% # Type of FU issued
system.switch_cpus0.iq.FU_type_0::FloatDiv            0      0.00%     85.27% # Type of FU issued
system.switch_cpus0.iq.FU_type_0::FloatSqrt            0      0.00%     85.27% # Type of FU issued
system.switch_cpus0.iq.FU_type_0::SimdAdd            0      0.00%     85.27% # Type of FU issued
system.switch_cpus0.iq.FU_type_0::SimdAddAcc            0      0.00%     85.27% # Type of FU issued
system.switch_cpus0.iq.FU_type_0::SimdAlu            0      0.00%     85.27% # Type of FU issued
system.switch_cpus0.iq.FU_type_0::SimdCmp            0      0.00%     85.27% # Type of FU issued
system.switch_cpus0.iq.FU_type_0::SimdCvt            0      0.00%     85.27% # Type of FU issued
system.switch_cpus0.iq.FU_type_0::SimdMisc            0      0.00%     85.27% # Type of FU issued
system.switch_cpus0.iq.FU_type_0::SimdMult            0      0.00%     85.27% # Type of FU issued
system.switch_cpus0.iq.FU_type_0::SimdMultAcc            0      0.00%     85.27% # Type of FU issued
system.switch_cpus0.iq.FU_type_0::SimdShift            0      0.00%     85.27% # Type of FU issued
system.switch_cpus0.iq.FU_type_0::SimdShiftAcc            0      0.00%     85.27% # Type of FU issued
system.switch_cpus0.iq.FU_type_0::SimdSqrt            0      0.00%     85.27% # Type of FU issued
system.switch_cpus0.iq.FU_type_0::SimdFloatAdd            0      0.00%     85.27% # Type of FU issued
system.switch_cpus0.iq.FU_type_0::SimdFloatAlu            0      0.00%     85.27% # Type of FU issued
system.switch_cpus0.iq.FU_type_0::SimdFloatCmp            0      0.00%     85.27% # Type of FU issued
system.switch_cpus0.iq.FU_type_0::SimdFloatCvt            0      0.00%     85.27% # Type of FU issued
system.switch_cpus0.iq.FU_type_0::SimdFloatDiv            0      0.00%     85.27% # Type of FU issued
system.switch_cpus0.iq.FU_type_0::SimdFloatMisc        16584      0.01%     85.28% # Type of FU issued
system.switch_cpus0.iq.FU_type_0::SimdFloatMult            0      0.00%     85.28% # Type of FU issued
system.switch_cpus0.iq.FU_type_0::SimdFloatMultAcc            0      0.00%     85.28% # Type of FU issued
system.switch_cpus0.iq.FU_type_0::SimdFloatSqrt            0      0.00%     85.28% # Type of FU issued
system.switch_cpus0.iq.FU_type_0::MemRead     12520938      9.25%     94.53% # Type of FU issued
system.switch_cpus0.iq.FU_type_0::MemWrite      7410656      5.47%    100.00% # Type of FU issued
system.switch_cpus0.iq.FU_type_0::IprAccess            0      0.00%    100.00% # Type of FU issued
system.switch_cpus0.iq.FU_type_0::InstPrefetch            0      0.00%    100.00% # Type of FU issued
system.switch_cpus0.iq.FU_type_0::total     135400037                       # Type of FU issued
system.switch_cpus0.iq.rate                  0.515380                       # Inst issue rate
system.switch_cpus0.iq.fu_busy_cnt             291407                       # FU busy when requested
system.switch_cpus0.iq.fu_busy_rate          0.002152                       # FU busy rate (busy events/executed inst)
system.switch_cpus0.iq.int_inst_queue_reads    508864494                       # Number of integer instruction queue reads
system.switch_cpus0.iq.int_inst_queue_writes    161277619                       # Number of integer instruction queue writes
system.switch_cpus0.iq.int_inst_queue_wakeup_accesses    133160354                       # Number of integer instruction queue wakeup accesses
system.switch_cpus0.iq.fp_inst_queue_reads            0                       # Number of floating instruction queue reads
system.switch_cpus0.iq.fp_inst_queue_writes            0                       # Number of floating instruction queue writes
system.switch_cpus0.iq.fp_inst_queue_wakeup_accesses            0                       # Number of floating instruction queue wakeup accesses
system.switch_cpus0.iq.int_alu_accesses     135691444                       # Number of integer alu accesses
system.switch_cpus0.iq.fp_alu_accesses              0                       # Number of floating point alu accesses
system.switch_cpus0.iew.lsq.thread0.forwLoads       342143                       # Number of loads that had data forwarded from stores
system.switch_cpus0.iew.lsq.thread0.invAddrLoads            0                       # Number of loads ignored due to an invalid address
system.switch_cpus0.iew.lsq.thread0.squashedLoads      2419074                       # Number of loads squashed
system.switch_cpus0.iew.lsq.thread0.ignoredResponses          829                       # Number of memory responses ignored because the instruction is squashed
system.switch_cpus0.iew.lsq.thread0.memOrderViolation         1264                       # Number of memory ordering violations
system.switch_cpus0.iew.lsq.thread0.squashedStores       164483                       # Number of stores squashed
system.switch_cpus0.iew.lsq.thread0.invAddrSwpfs            0                       # Number of software prefetches ignored due to an invalid address
system.switch_cpus0.iew.lsq.thread0.blockedLoads            0                       # Number of blocked loads due to partial load-store forwarding
system.switch_cpus0.iew.lsq.thread0.rescheduledLoads         8290                       # Number of loads that were rescheduled
system.switch_cpus0.iew.lsq.thread0.cacheBlocked         1317                       # Number of times an access to memory failed due to the cache being blocked
system.switch_cpus0.iew.iewIdleCycles               0                       # Number of cycles IEW is idle
system.switch_cpus0.iew.iewSquashCycles       3675179                       # Number of cycles IEW is squashing
system.switch_cpus0.iew.iewBlockCycles        3917422                       # Number of cycles IEW is blocking
system.switch_cpus0.iew.iewUnblockCycles       150359                       # Number of cycles IEW is unblocking
system.switch_cpus0.iew.iewDispatchedInsts    143340616                       # Number of instructions dispatched to IQ
system.switch_cpus0.iew.iewDispSquashedInsts        62003                       # Number of squashed instructions skipped by dispatch
system.switch_cpus0.iew.iewDispLoadInsts     13702757                       # Number of dispatched load instructions
system.switch_cpus0.iew.iewDispStoreInsts      7465155                       # Number of dispatched store instructions
system.switch_cpus0.iew.iewDispNonSpecInsts        20764                       # Number of dispatched non-speculative instructions
system.switch_cpus0.iew.iewIQFullEvents        104659                       # Number of times the IQ has become full, causing a stall
system.switch_cpus0.iew.iewLSQFullEvents            0                       # Number of times the LSQ has become full, causing a stall
system.switch_cpus0.iew.memOrderViolationEvents         1264                       # Number of memory order violations
system.switch_cpus0.iew.predictedTakenIncorrect      1172168                       # Number of branches that were predicted taken incorrectly
system.switch_cpus0.iew.predictedNotTakenIncorrect      1137856                       # Number of branches that were predicted not taken incorrectly
system.switch_cpus0.iew.branchMispredicts      2310024                       # Number of branch mispredicts detected at execute
system.switch_cpus0.iew.iewExecutedInsts    133413039                       # Number of executed instructions
system.switch_cpus0.iew.iewExecLoadInsts     11758909                       # Number of load instructions executed
system.switch_cpus0.iew.iewExecSquashedInsts      1986994                       # Number of squashed instructions skipped in execute
system.switch_cpus0.iew.exec_swp                    0                       # number of swp insts executed
system.switch_cpus0.iew.exec_nop                  128                       # number of nop insts executed
system.switch_cpus0.iew.exec_refs            19167660                       # number of memory reference insts executed
system.switch_cpus0.iew.exec_branches        18667661                       # Number of branches executed
system.switch_cpus0.iew.exec_stores           7408751                       # Number of stores executed
system.switch_cpus0.iew.exec_rate            0.507817                       # Inst execution rate
system.switch_cpus0.iew.wb_sent             133162300                       # cumulative count of insts sent to commit
system.switch_cpus0.iew.wb_count            133160354                       # cumulative count of insts written-back
system.switch_cpus0.iew.wb_producers         79149010                       # num instructions producing a value
system.switch_cpus0.iew.wb_consumers        207320522                       # num instructions consuming a value
system.switch_cpus0.iew.wb_penalized                0                       # number of instrctions required to write to 'other' IQ
system.switch_cpus0.iew.wb_rate              0.506855                       # insts written-back per cycle
system.switch_cpus0.iew.wb_fanout            0.381771                       # average fanout of values written-back
system.switch_cpus0.iew.wb_penalized_rate            0                       # fraction of instructions written-back that wrote to 'other' IQ
system.switch_cpus0.commit.commitCommittedInsts    100000003                       # The number of committed instructions
system.switch_cpus0.commit.commitCommittedOps    122687896                       # The number of committed instructions
system.switch_cpus0.commit.commitSquashedInsts     20653915                       # The number of squashed insts skipped by commit
system.switch_cpus0.commit.commitNonSpecStalls        33450                       # The number of times commit has been forced to stall to communicate backwards
system.switch_cpus0.commit.branchMispredicts      2036285                       # The number of times a branch was mispredicted
system.switch_cpus0.commit.committed_per_cycle::samples    233907870                       # Number of insts commited each cycle
system.switch_cpus0.commit.committed_per_cycle::mean     0.524514                       # Number of insts commited each cycle
system.switch_cpus0.commit.committed_per_cycle::stdev     1.342788                       # Number of insts commited each cycle
system.switch_cpus0.commit.committed_per_cycle::underflows            0      0.00%      0.00% # Number of insts commited each cycle
system.switch_cpus0.commit.committed_per_cycle::0    183788149     78.57%     78.57% # Number of insts commited each cycle
system.switch_cpus0.commit.committed_per_cycle::1     23242730      9.94%     88.51% # Number of insts commited each cycle
system.switch_cpus0.commit.committed_per_cycle::2      9739028      4.16%     92.67% # Number of insts commited each cycle
system.switch_cpus0.commit.committed_per_cycle::3      5854539      2.50%     95.18% # Number of insts commited each cycle
system.switch_cpus0.commit.committed_per_cycle::4      4051851      1.73%     96.91% # Number of insts commited each cycle
system.switch_cpus0.commit.committed_per_cycle::5      2616378      1.12%     98.03% # Number of insts commited each cycle
system.switch_cpus0.commit.committed_per_cycle::6      1357565      0.58%     98.61% # Number of insts commited each cycle
system.switch_cpus0.commit.committed_per_cycle::7      1092231      0.47%     99.07% # Number of insts commited each cycle
system.switch_cpus0.commit.committed_per_cycle::8      2165399      0.93%    100.00% # Number of insts commited each cycle
system.switch_cpus0.commit.committed_per_cycle::overflows            0      0.00%    100.00% # Number of insts commited each cycle
system.switch_cpus0.commit.committed_per_cycle::min_value            0                       # Number of insts commited each cycle
system.switch_cpus0.commit.committed_per_cycle::max_value            8                       # Number of insts commited each cycle
system.switch_cpus0.commit.committed_per_cycle::total    233907870                       # Number of insts commited each cycle
system.switch_cpus0.commit.committedInsts    100000003                       # Number of instructions committed
system.switch_cpus0.commit.committedOps     122687896                       # Number of ops (including micro ops) committed
system.switch_cpus0.commit.swp_count                0                       # Number of s/w prefetches committed
system.switch_cpus0.commit.refs              18584355                       # Number of memory references committed
system.switch_cpus0.commit.loads             11283683                       # Number of loads committed
system.switch_cpus0.commit.membars              16688                       # Number of memory barriers committed
system.switch_cpus0.commit.branches          17558823                       # Number of branches committed
system.switch_cpus0.commit.fp_insts                 0                       # Number of committed floating point instructions.
system.switch_cpus0.commit.int_insts        110607967                       # Number of committed integer instructions.
system.switch_cpus0.commit.function_calls      2496073                       # Number of function calls committed.
system.switch_cpus0.commit.bw_lim_events      2165399                       # number cycles where commit BW limit reached
system.switch_cpus0.commit.bw_limited               0                       # number of insts not committed due to BW limits
system.switch_cpus0.rob.rob_reads           375083606                       # The number of ROB reads
system.switch_cpus0.rob.rob_writes          290358900                       # The number of ROB writes
system.switch_cpus0.timesIdled                3024315                       # Number of times that the entire CPU went into an idle state and unscheduled itself
system.switch_cpus0.idleCycles               25135938                       # Total number of cycles that the CPU has spent unscheduled due to idling
system.switch_cpus0.committedInsts          100000003                       # Number of Instructions Simulated
system.switch_cpus0.committedOps            122687896                       # Number of Ops (including micro ops) Simulated
system.switch_cpus0.committedInsts_total    100000003                       # Number of Instructions Simulated
system.switch_cpus0.cpi                      2.627190                       # CPI: Cycles Per Instruction
system.switch_cpus0.cpi_total                2.627190                       # CPI: Total CPI of All Threads
system.switch_cpus0.ipc                      0.380635                       # IPC: Instructions Per Cycle
system.switch_cpus0.ipc_total                0.380635                       # IPC: Total IPC of All Threads
system.switch_cpus0.int_regfile_reads       601809505                       # number of integer regfile reads
system.switch_cpus0.int_regfile_writes      184813041                       # number of integer regfile writes
system.switch_cpus0.misc_regfile_reads      134022917                       # number of misc regfile reads
system.switch_cpus0.misc_regfile_writes         33420                       # number of misc regfile writes
system.switch_cpus1.dtb.inst_hits                   0                       # ITB inst hits
system.switch_cpus1.dtb.inst_misses                 0                       # ITB inst misses
system.switch_cpus1.dtb.read_hits                   0                       # DTB read hits
system.switch_cpus1.dtb.read_misses                 0                       # DTB read misses
system.switch_cpus1.dtb.write_hits                  0                       # DTB write hits
system.switch_cpus1.dtb.write_misses                0                       # DTB write misses
system.switch_cpus1.dtb.flush_tlb                   0                       # Number of times complete TLB was flushed
system.switch_cpus1.dtb.flush_tlb_mva               0                       # Number of times TLB was flushed by MVA
system.switch_cpus1.dtb.flush_tlb_mva_asid            0                       # Number of times TLB was flushed by MVA & ASID
system.switch_cpus1.dtb.flush_tlb_asid              0                       # Number of times TLB was flushed by ASID
system.switch_cpus1.dtb.flush_entries               0                       # Number of entries that have been flushed from TLB
system.switch_cpus1.dtb.align_faults                0                       # Number of TLB faults due to alignment restrictions
system.switch_cpus1.dtb.prefetch_faults             0                       # Number of TLB faults due to prefetch
system.switch_cpus1.dtb.domain_faults               0                       # Number of TLB faults due to domain restrictions
system.switch_cpus1.dtb.perms_faults                0                       # Number of TLB faults due to permissions restrictions
system.switch_cpus1.dtb.read_accesses               0                       # DTB read accesses
system.switch_cpus1.dtb.write_accesses              0                       # DTB write accesses
system.switch_cpus1.dtb.inst_accesses               0                       # ITB inst accesses
system.switch_cpus1.dtb.hits                        0                       # DTB hits
system.switch_cpus1.dtb.misses                      0                       # DTB misses
system.switch_cpus1.dtb.accesses                    0                       # DTB accesses
system.switch_cpus1.itb.inst_hits                   0                       # ITB inst hits
system.switch_cpus1.itb.inst_misses                 0                       # ITB inst misses
system.switch_cpus1.itb.read_hits                   0                       # DTB read hits
system.switch_cpus1.itb.read_misses                 0                       # DTB read misses
system.switch_cpus1.itb.write_hits                  0                       # DTB write hits
system.switch_cpus1.itb.write_misses                0                       # DTB write misses
system.switch_cpus1.itb.flush_tlb                   0                       # Number of times complete TLB was flushed
system.switch_cpus1.itb.flush_tlb_mva               0                       # Number of times TLB was flushed by MVA
system.switch_cpus1.itb.flush_tlb_mva_asid            0                       # Number of times TLB was flushed by MVA & ASID
system.switch_cpus1.itb.flush_tlb_asid              0                       # Number of times TLB was flushed by ASID
system.switch_cpus1.itb.flush_entries               0                       # Number of entries that have been flushed from TLB
system.switch_cpus1.itb.align_faults                0                       # Number of TLB faults due to alignment restrictions
system.switch_cpus1.itb.prefetch_faults             0                       # Number of TLB faults due to prefetch
system.switch_cpus1.itb.domain_faults               0                       # Number of TLB faults due to domain restrictions
system.switch_cpus1.itb.perms_faults                0                       # Number of TLB faults due to permissions restrictions
system.switch_cpus1.itb.read_accesses               0                       # DTB read accesses
system.switch_cpus1.itb.write_accesses              0                       # DTB write accesses
system.switch_cpus1.itb.inst_accesses               0                       # ITB inst accesses
system.switch_cpus1.itb.hits                        0                       # DTB hits
system.switch_cpus1.itb.misses                      0                       # DTB misses
system.switch_cpus1.itb.accesses                    0                       # DTB accesses
system.cpu1.workload.num_syscalls                  55                       # Number of system calls
system.switch_cpus1.numCycles               262718987                       # number of cpu cycles simulated
system.switch_cpus1.numWorkItemsStarted             0                       # number of work items this cpu started
system.switch_cpus1.numWorkItemsCompleted            0                       # number of work items this cpu completed
system.switch_cpus1.BPredUnit.lookups        21318963                       # Number of BP lookups
system.switch_cpus1.BPredUnit.condPredicted     17444621                       # Number of conditional branches predicted
system.switch_cpus1.BPredUnit.condIncorrect      2079839                       # Number of conditional branches incorrect
system.switch_cpus1.BPredUnit.BTBLookups      8769152                       # Number of BTB lookups
system.switch_cpus1.BPredUnit.BTBHits         8385395                       # Number of BTB hits
system.switch_cpus1.BPredUnit.BTBCorrect            0                       # Number of correct BTB predictions (this stat may not work properly.
system.switch_cpus1.BPredUnit.usedRAS         2202180                       # Number of times the RAS was used to get a target.
system.switch_cpus1.BPredUnit.RASInCorrect        94755                       # Number of incorrect RAS predictions.
system.switch_cpus1.fetch.icacheStallCycles    205181230                       # Number of cycles fetch is stalled on an Icache miss
system.switch_cpus1.fetch.Insts             119242291                       # Number of instructions fetch has processed
system.switch_cpus1.fetch.Branches           21318963                       # Number of branches that fetch encountered
system.switch_cpus1.fetch.predictedBranches     10587575                       # Number of branches that fetch has predicted taken
system.switch_cpus1.fetch.Cycles             24887398                       # Number of cycles fetch has run and was not squashing or blocked
system.switch_cpus1.fetch.SquashCycles        5684570                       # Number of cycles fetch has spent squashing
system.switch_cpus1.fetch.BlockedCycles       5792872                       # Number of cycles fetch has spent blocked
system.switch_cpus1.fetch.CacheLines         12552241                       # Number of cache lines fetched
system.switch_cpus1.fetch.IcacheSquashes      2081438                       # Number of outstanding Icache misses that were squashed
system.switch_cpus1.fetch.rateDist::samples    239439153                       # Number of instructions fetched each cycle (Total)
system.switch_cpus1.fetch.rateDist::mean     0.611477                       # Number of instructions fetched each cycle (Total)
system.switch_cpus1.fetch.rateDist::stdev     1.952998                       # Number of instructions fetched each cycle (Total)
system.switch_cpus1.fetch.rateDist::underflows            0      0.00%      0.00% # Number of instructions fetched each cycle (Total)
system.switch_cpus1.fetch.rateDist::0       214551755     89.61%     89.61% # Number of instructions fetched each cycle (Total)
system.switch_cpus1.fetch.rateDist::1         1162531      0.49%     90.09% # Number of instructions fetched each cycle (Total)
system.switch_cpus1.fetch.rateDist::2         1844413      0.77%     90.86% # Number of instructions fetched each cycle (Total)
system.switch_cpus1.fetch.rateDist::3         2495437      1.04%     91.90% # Number of instructions fetched each cycle (Total)
system.switch_cpus1.fetch.rateDist::4         2566296      1.07%     92.98% # Number of instructions fetched each cycle (Total)
system.switch_cpus1.fetch.rateDist::5         2171517      0.91%     93.88% # Number of instructions fetched each cycle (Total)
system.switch_cpus1.fetch.rateDist::6         1212692      0.51%     94.39% # Number of instructions fetched each cycle (Total)
system.switch_cpus1.fetch.rateDist::7         1801120      0.75%     95.14% # Number of instructions fetched each cycle (Total)
system.switch_cpus1.fetch.rateDist::8        11633392      4.86%    100.00% # Number of instructions fetched each cycle (Total)
system.switch_cpus1.fetch.rateDist::overflows            0      0.00%    100.00% # Number of instructions fetched each cycle (Total)
system.switch_cpus1.fetch.rateDist::min_value            0                       # Number of instructions fetched each cycle (Total)
system.switch_cpus1.fetch.rateDist::max_value            8                       # Number of instructions fetched each cycle (Total)
system.switch_cpus1.fetch.rateDist::total    239439153                       # Number of instructions fetched each cycle (Total)
system.switch_cpus1.fetch.branchRate         0.081147                       # Number of branch fetches per cycle
system.switch_cpus1.fetch.rate               0.453878                       # Number of inst fetches per cycle
system.switch_cpus1.decode.IdleCycles       203072223                       # Number of cycles decode is idle
system.switch_cpus1.decode.BlockedCycles      7919931                       # Number of cycles decode is blocked
system.switch_cpus1.decode.RunCycles         24841344                       # Number of cycles decode is running
system.switch_cpus1.decode.UnblockCycles        28374                       # Number of cycles decode is unblocking
system.switch_cpus1.decode.SquashCycles       3577279                       # Number of cycles decode is squashing
system.switch_cpus1.decode.BranchResolved      3508569                       # Number of times decode resolved a branch
system.switch_cpus1.decode.BranchMispred          374                       # Number of times decode detected a branch misprediction
system.switch_cpus1.decode.DecodedInsts     146298455                       # Number of instructions handled by decode
system.switch_cpus1.decode.SquashedInsts         1963                       # Number of squashed instructions handled by decode
system.switch_cpus1.rename.SquashCycles       3577279                       # Number of cycles rename is squashing
system.switch_cpus1.rename.IdleCycles       203631337                       # Number of cycles rename is idle
system.switch_cpus1.rename.BlockCycles        1518812                       # Number of cycles rename is blocking
system.switch_cpus1.rename.serializeStallCycles      5111681                       # count of cycles rename stalled for serializing inst
system.switch_cpus1.rename.RunCycles         24317175                       # Number of cycles rename is running
system.switch_cpus1.rename.UnblockCycles      1282867                       # Number of cycles rename is unblocking
system.switch_cpus1.rename.RenamedInsts     146243442                       # Number of instructions processed by rename
system.switch_cpus1.rename.ROBFullEvents          192                       # Number of times rename has blocked due to ROB full
system.switch_cpus1.rename.IQFullEvents        188615                       # Number of times rename has blocked due to IQ full
system.switch_cpus1.rename.LSQFullEvents       551710                       # Number of times rename has blocked due to LSQ full
system.switch_cpus1.rename.RenamedOperands    204076183                       # Number of destination operands rename has renamed
system.switch_cpus1.rename.RenameLookups    680360193                       # Number of register rename lookups that rename has made
system.switch_cpus1.rename.int_rename_lookups    680360193                       # Number of integer rename lookups
system.switch_cpus1.rename.CommittedMaps    176917913                       # Number of HB maps that are committed
system.switch_cpus1.rename.UndoneMaps        27158269                       # Number of HB maps that are undone due to squashing
system.switch_cpus1.rename.serializingInsts        36260                       # count of serializing insts renamed
system.switch_cpus1.rename.tempSerializingInsts        18866                       # count of temporary serializing insts renamed
system.switch_cpus1.rename.skidInsts          3808501                       # count of insts added to the skid buffer
system.switch_cpus1.memDep0.insertedLoads     13679261                       # Number of loads inserted to the mem dependence unit.
system.switch_cpus1.memDep0.insertedStores      7418546                       # Number of stores inserted to the mem dependence unit.
system.switch_cpus1.memDep0.conflictingLoads        87057                       # Number of conflicting loads.
system.switch_cpus1.memDep0.conflictingStores      1710741                       # Number of conflicting stores.
system.switch_cpus1.iq.iqInstsAdded         146059249                       # Number of instructions added to the IQ (excludes non-spec)
system.switch_cpus1.iq.iqNonSpecInstsAdded        36388                       # Number of non-speculative instructions added to the IQ
system.switch_cpus1.iq.iqInstsIssued        138696699                       # Number of instructions issued
system.switch_cpus1.iq.iqSquashedInstsIssued        19106                       # Number of squashed instructions issued
system.switch_cpus1.iq.iqSquashedInstsExamined     16151681                       # Number of squashed instructions iterated over during squash; mainly for profiling
system.switch_cpus1.iq.iqSquashedOperandsExamined     38708910                       # Number of squashed operands that are examined and possibly removed from graph
system.switch_cpus1.iq.iqSquashedNonSpecRemoved         1312                       # Number of squashed non-spec instructions that were removed
system.switch_cpus1.iq.issued_per_cycle::samples    239439153                       # Number of insts issued each cycle
system.switch_cpus1.iq.issued_per_cycle::mean     0.579257                       # Number of insts issued each cycle
system.switch_cpus1.iq.issued_per_cycle::stdev     1.270813                       # Number of insts issued each cycle
system.switch_cpus1.iq.issued_per_cycle::underflows            0      0.00%      0.00% # Number of insts issued each cycle
system.switch_cpus1.iq.issued_per_cycle::0    180791272     75.51%     75.51% # Number of insts issued each cycle
system.switch_cpus1.iq.issued_per_cycle::1     24084229     10.06%     85.56% # Number of insts issued each cycle
system.switch_cpus1.iq.issued_per_cycle::2     12205027      5.10%     90.66% # Number of insts issued each cycle
system.switch_cpus1.iq.issued_per_cycle::3      9242326      3.86%     94.52% # Number of insts issued each cycle
system.switch_cpus1.iq.issued_per_cycle::4      7255380      3.03%     97.55% # Number of insts issued each cycle
system.switch_cpus1.iq.issued_per_cycle::5      2928396      1.22%     98.78% # Number of insts issued each cycle
system.switch_cpus1.iq.issued_per_cycle::6      1844071      0.77%     99.55% # Number of insts issued each cycle
system.switch_cpus1.iq.issued_per_cycle::7       960104      0.40%     99.95% # Number of insts issued each cycle
system.switch_cpus1.iq.issued_per_cycle::8       128348      0.05%    100.00% # Number of insts issued each cycle
system.switch_cpus1.iq.issued_per_cycle::overflows            0      0.00%    100.00% # Number of insts issued each cycle
system.switch_cpus1.iq.issued_per_cycle::min_value            0                       # Number of insts issued each cycle
system.switch_cpus1.iq.issued_per_cycle::max_value            8                       # Number of insts issued each cycle
system.switch_cpus1.iq.issued_per_cycle::total    239439153                       # Number of insts issued each cycle
system.switch_cpus1.iq.fu_full::No_OpClass            0      0.00%      0.00% # attempts to use FU when none available
system.switch_cpus1.iq.fu_full::IntAlu          26231     11.40%     11.40% # attempts to use FU when none available
system.switch_cpus1.iq.fu_full::IntMult             0      0.00%     11.40% # attempts to use FU when none available
system.switch_cpus1.iq.fu_full::IntDiv              0      0.00%     11.40% # attempts to use FU when none available
system.switch_cpus1.iq.fu_full::FloatAdd            0      0.00%     11.40% # attempts to use FU when none available
system.switch_cpus1.iq.fu_full::FloatCmp            0      0.00%     11.40% # attempts to use FU when none available
system.switch_cpus1.iq.fu_full::FloatCvt            0      0.00%     11.40% # attempts to use FU when none available
system.switch_cpus1.iq.fu_full::FloatMult            0      0.00%     11.40% # attempts to use FU when none available
system.switch_cpus1.iq.fu_full::FloatDiv            0      0.00%     11.40% # attempts to use FU when none available
system.switch_cpus1.iq.fu_full::FloatSqrt            0      0.00%     11.40% # attempts to use FU when none available
system.switch_cpus1.iq.fu_full::SimdAdd             0      0.00%     11.40% # attempts to use FU when none available
system.switch_cpus1.iq.fu_full::SimdAddAcc            0      0.00%     11.40% # attempts to use FU when none available
system.switch_cpus1.iq.fu_full::SimdAlu             0      0.00%     11.40% # attempts to use FU when none available
system.switch_cpus1.iq.fu_full::SimdCmp             0      0.00%     11.40% # attempts to use FU when none available
system.switch_cpus1.iq.fu_full::SimdCvt             0      0.00%     11.40% # attempts to use FU when none available
system.switch_cpus1.iq.fu_full::SimdMisc            0      0.00%     11.40% # attempts to use FU when none available
system.switch_cpus1.iq.fu_full::SimdMult            0      0.00%     11.40% # attempts to use FU when none available
system.switch_cpus1.iq.fu_full::SimdMultAcc            0      0.00%     11.40% # attempts to use FU when none available
system.switch_cpus1.iq.fu_full::SimdShift            0      0.00%     11.40% # attempts to use FU when none available
system.switch_cpus1.iq.fu_full::SimdShiftAcc            0      0.00%     11.40% # attempts to use FU when none available
system.switch_cpus1.iq.fu_full::SimdSqrt            0      0.00%     11.40% # attempts to use FU when none available
system.switch_cpus1.iq.fu_full::SimdFloatAdd            0      0.00%     11.40% # attempts to use FU when none available
system.switch_cpus1.iq.fu_full::SimdFloatAlu            0      0.00%     11.40% # attempts to use FU when none available
system.switch_cpus1.iq.fu_full::SimdFloatCmp            0      0.00%     11.40% # attempts to use FU when none available
system.switch_cpus1.iq.fu_full::SimdFloatCvt            0      0.00%     11.40% # attempts to use FU when none available
system.switch_cpus1.iq.fu_full::SimdFloatDiv            0      0.00%     11.40% # attempts to use FU when none available
system.switch_cpus1.iq.fu_full::SimdFloatMisc            0      0.00%     11.40% # attempts to use FU when none available
system.switch_cpus1.iq.fu_full::SimdFloatMult            0      0.00%     11.40% # attempts to use FU when none available
system.switch_cpus1.iq.fu_full::SimdFloatMultAcc            0      0.00%     11.40% # attempts to use FU when none available
system.switch_cpus1.iq.fu_full::SimdFloatSqrt            0      0.00%     11.40% # attempts to use FU when none available
system.switch_cpus1.iq.fu_full::MemRead         84415     36.69%     48.09% # attempts to use FU when none available
system.switch_cpus1.iq.fu_full::MemWrite       119435     51.91%    100.00% # attempts to use FU when none available
system.switch_cpus1.iq.fu_full::IprAccess            0      0.00%    100.00% # attempts to use FU when none available
system.switch_cpus1.iq.fu_full::InstPrefetch            0      0.00%    100.00% # attempts to use FU when none available
system.switch_cpus1.iq.FU_type_0::No_OpClass            0      0.00%      0.00% # Type of FU issued
system.switch_cpus1.iq.FU_type_0::IntAlu    116646476     84.10%     84.10% # Type of FU issued
system.switch_cpus1.iq.FU_type_0::IntMult      2072743      1.49%     85.60% # Type of FU issued
system.switch_cpus1.iq.FU_type_0::IntDiv            0      0.00%     85.60% # Type of FU issued
system.switch_cpus1.iq.FU_type_0::FloatAdd            0      0.00%     85.60% # Type of FU issued
system.switch_cpus1.iq.FU_type_0::FloatCmp            0      0.00%     85.60% # Type of FU issued
system.switch_cpus1.iq.FU_type_0::FloatCvt            0      0.00%     85.60% # Type of FU issued
system.switch_cpus1.iq.FU_type_0::FloatMult            0      0.00%     85.60% # Type of FU issued
system.switch_cpus1.iq.FU_type_0::FloatDiv            0      0.00%     85.60% # Type of FU issued
system.switch_cpus1.iq.FU_type_0::FloatSqrt            0      0.00%     85.60% # Type of FU issued
system.switch_cpus1.iq.FU_type_0::SimdAdd            0      0.00%     85.60% # Type of FU issued
system.switch_cpus1.iq.FU_type_0::SimdAddAcc            0      0.00%     85.60% # Type of FU issued
system.switch_cpus1.iq.FU_type_0::SimdAlu            0      0.00%     85.60% # Type of FU issued
system.switch_cpus1.iq.FU_type_0::SimdCmp            0      0.00%     85.60% # Type of FU issued
system.switch_cpus1.iq.FU_type_0::SimdCvt            0      0.00%     85.60% # Type of FU issued
system.switch_cpus1.iq.FU_type_0::SimdMisc            0      0.00%     85.60% # Type of FU issued
[...]
system.cpu7.icache.ReadReq_avg_miss_latency::total 1625767.787234                       # average ReadReq miss latency
system.cpu7.icache.demand_avg_miss_latency::switch_cpus7.inst 1625767.787234                       # average overall miss latency
system.cpu7.icache.demand_avg_miss_latency::total 1625767.787234                       # average overall miss latency
system.cpu7.icache.overall_avg_miss_latency::switch_cpus7.inst 1625767.787234                       # average overall miss latency
system.cpu7.icache.overall_avg_miss_latency::total 1625767.787234                       # average overall miss latency
system.cpu7.icache.blocked_cycles::no_mshrs       662202                       # number of cycles access was blocked
system.cpu7.icache.blocked_cycles::no_targets            0                       # number of cycles access was blocked
system.cpu7.icache.blocked::no_mshrs                2                       # number of cycles access was blocked
system.cpu7.icache.blocked::no_targets              0                       # number of cycles access was blocked
system.cpu7.icache.avg_blocked_cycles::no_mshrs       331101                       # average number of cycles each access was blocked
system.cpu7.icache.avg_blocked_cycles::no_targets          nan                       # average number of cycles each access was blocked
system.cpu7.icache.fast_writes                      0                       # number of fast writes performed
system.cpu7.icache.cache_copies                     0                       # number of cache copies performed
system.cpu7.icache.ReadReq_mshr_hits::switch_cpus7.inst           11                       # number of ReadReq MSHR hits
system.cpu7.icache.ReadReq_mshr_hits::total           11                       # number of ReadReq MSHR hits
system.cpu7.icache.demand_mshr_hits::switch_cpus7.inst           11                       # number of demand (read+write) MSHR hits
system.cpu7.icache.demand_mshr_hits::total           11                       # number of demand (read+write) MSHR hits
system.cpu7.icache.overall_mshr_hits::switch_cpus7.inst           11                       # number of overall MSHR hits
system.cpu7.icache.overall_mshr_hits::total           11                       # number of overall MSHR hits
system.cpu7.icache.ReadReq_mshr_misses::switch_cpus7.inst           36                       # number of ReadReq MSHR misses
system.cpu7.icache.ReadReq_mshr_misses::total           36                       # number of ReadReq MSHR misses
system.cpu7.icache.demand_mshr_misses::switch_cpus7.inst           36                       # number of demand (read+write) MSHR misses
system.cpu7.icache.demand_mshr_misses::total           36                       # number of demand (read+write) MSHR misses
system.cpu7.icache.overall_mshr_misses::switch_cpus7.inst           36                       # number of overall MSHR misses
system.cpu7.icache.overall_mshr_misses::total           36                       # number of overall MSHR misses
system.cpu7.icache.ReadReq_mshr_miss_latency::switch_cpus7.inst     50501492                       # number of ReadReq MSHR miss cycles
system.cpu7.icache.ReadReq_mshr_miss_latency::total     50501492                       # number of ReadReq MSHR miss cycles
system.cpu7.icache.demand_mshr_miss_latency::switch_cpus7.inst     50501492                       # number of demand (read+write) MSHR miss cycles
system.cpu7.icache.demand_mshr_miss_latency::total     50501492                       # number of demand (read+write) MSHR miss cycles
system.cpu7.icache.overall_mshr_miss_latency::switch_cpus7.inst     50501492                       # number of overall MSHR miss cycles
system.cpu7.icache.overall_mshr_miss_latency::total     50501492                       # number of overall MSHR miss cycles
system.cpu7.icache.ReadReq_mshr_miss_rate::switch_cpus7.inst     0.000003                       # mshr miss rate for ReadReq accesses
system.cpu7.icache.ReadReq_mshr_miss_rate::total     0.000003                       # mshr miss rate for ReadReq accesses
system.cpu7.icache.demand_mshr_miss_rate::switch_cpus7.inst     0.000003                       # mshr miss rate for demand accesses
system.cpu7.icache.demand_mshr_miss_rate::total     0.000003                       # mshr miss rate for demand accesses
system.cpu7.icache.overall_mshr_miss_rate::switch_cpus7.inst     0.000003                       # mshr miss rate for overall accesses
system.cpu7.icache.overall_mshr_miss_rate::total     0.000003                       # mshr miss rate for overall accesses
system.cpu7.icache.ReadReq_avg_mshr_miss_latency::switch_cpus7.inst 1402819.222222                       # average ReadReq mshr miss latency
system.cpu7.icache.ReadReq_avg_mshr_miss_latency::total 1402819.222222                       # average ReadReq mshr miss latency
system.cpu7.icache.demand_avg_mshr_miss_latency::switch_cpus7.inst 1402819.222222                       # average overall mshr miss latency
system.cpu7.icache.demand_avg_mshr_miss_latency::total 1402819.222222                       # average overall mshr miss latency
system.cpu7.icache.overall_avg_mshr_miss_latency::switch_cpus7.inst 1402819.222222                       # average overall mshr miss latency
system.cpu7.icache.overall_avg_mshr_miss_latency::total 1402819.222222                       # average overall mshr miss latency
system.cpu7.icache.no_allocate_misses               0                       # Number of misses that were no-allocate
system.cpu7.dcache.replacements                 37614                       # number of replacements
system.cpu7.dcache.tagsinuse                      256                       # Cycle average of tags in use
system.cpu7.dcache.total_refs               164779938                       # Total number of references to valid blocks.
system.cpu7.dcache.sampled_refs                 37870                       # Sample count of references to valid blocks.
system.cpu7.dcache.avg_refs               4351.199842                       # Average number of references to valid blocks.
system.cpu7.dcache.warmup_cycle                     0                       # Cycle when the warmup percentage was hit.
system.cpu7.dcache.occ_blocks::switch_cpus7.data   233.504790                       # Average occupied blocks per requestor
system.cpu7.dcache.occ_blocks::cpu7.data    22.495210                       # Average occupied blocks per requestor
system.cpu7.dcache.occ_percent::switch_cpus7.data     0.912128                       # Average percentage of cache occupancy
system.cpu7.dcache.occ_percent::cpu7.data     0.087872                       # Average percentage of cache occupancy
system.cpu7.dcache.occ_percent::total               1                       # Average percentage of cache occupancy
system.cpu7.dcache.ReadReq_hits::switch_cpus7.data     10157619                       # number of ReadReq hits
system.cpu7.dcache.ReadReq_hits::total       10157619                       # number of ReadReq hits
system.cpu7.dcache.WriteReq_hits::switch_cpus7.data      7547387                       # number of WriteReq hits
system.cpu7.dcache.WriteReq_hits::total       7547387                       # number of WriteReq hits
system.cpu7.dcache.LoadLockedReq_hits::switch_cpus7.data        19618                       # number of LoadLockedReq hits
system.cpu7.dcache.LoadLockedReq_hits::total        19618                       # number of LoadLockedReq hits
system.cpu7.dcache.StoreCondReq_hits::switch_cpus7.data        18356                       # number of StoreCondReq hits
system.cpu7.dcache.StoreCondReq_hits::total        18356                       # number of StoreCondReq hits
system.cpu7.dcache.demand_hits::switch_cpus7.data     17705006                       # number of demand (read+write) hits
system.cpu7.dcache.demand_hits::total        17705006                       # number of demand (read+write) hits
system.cpu7.dcache.overall_hits::switch_cpus7.data     17705006                       # number of overall hits
system.cpu7.dcache.overall_hits::total       17705006                       # number of overall hits
system.cpu7.dcache.ReadReq_misses::switch_cpus7.data        96888                       # number of ReadReq misses
system.cpu7.dcache.ReadReq_misses::total        96888                       # number of ReadReq misses
system.cpu7.dcache.WriteReq_misses::switch_cpus7.data         2206                       # number of WriteReq misses
system.cpu7.dcache.WriteReq_misses::total         2206                       # number of WriteReq misses
system.cpu7.dcache.demand_misses::switch_cpus7.data        99094                       # number of demand (read+write) misses
system.cpu7.dcache.demand_misses::total         99094                       # number of demand (read+write) misses
system.cpu7.dcache.overall_misses::switch_cpus7.data        99094                       # number of overall misses
system.cpu7.dcache.overall_misses::total        99094                       # number of overall misses
system.cpu7.dcache.ReadReq_miss_latency::switch_cpus7.data  13065548730                       # number of ReadReq miss cycles
system.cpu7.dcache.ReadReq_miss_latency::total  13065548730                       # number of ReadReq miss cycles
system.cpu7.dcache.WriteReq_miss_latency::switch_cpus7.data    142116521                       # number of WriteReq miss cycles
system.cpu7.dcache.WriteReq_miss_latency::total    142116521                       # number of WriteReq miss cycles
system.cpu7.dcache.demand_miss_latency::switch_cpus7.data  13207665251                       # number of demand (read+write) miss cycles
system.cpu7.dcache.demand_miss_latency::total  13207665251                       # number of demand (read+write) miss cycles
system.cpu7.dcache.overall_miss_latency::switch_cpus7.data  13207665251                       # number of overall miss cycles
system.cpu7.dcache.overall_miss_latency::total  13207665251                       # number of overall miss cycles
system.cpu7.dcache.ReadReq_accesses::switch_cpus7.data     10254507                       # number of ReadReq accesses(hits+misses)
system.cpu7.dcache.ReadReq_accesses::total     10254507                       # number of ReadReq accesses(hits+misses)
system.cpu7.dcache.WriteReq_accesses::switch_cpus7.data      7549593                       # number of WriteReq accesses(hits+misses)
system.cpu7.dcache.WriteReq_accesses::total      7549593                       # number of WriteReq accesses(hits+misses)
system.cpu7.dcache.LoadLockedReq_accesses::switch_cpus7.data        19618                       # number of LoadLockedReq accesses(hits+misses)
system.cpu7.dcache.LoadLockedReq_accesses::total        19618                       # number of LoadLockedReq accesses(hits+misses)
system.cpu7.dcache.StoreCondReq_accesses::switch_cpus7.data        18356                       # number of StoreCondReq accesses(hits+misses)
system.cpu7.dcache.StoreCondReq_accesses::total        18356                       # number of StoreCondReq accesses(hits+misses)
system.cpu7.dcache.demand_accesses::switch_cpus7.data     17804100                       # number of demand (read+write) accesses
system.cpu7.dcache.demand_accesses::total     17804100                       # number of demand (read+write) accesses
system.cpu7.dcache.overall_accesses::switch_cpus7.data     17804100                       # number of overall (read+write) accesses
system.cpu7.dcache.overall_accesses::total     17804100                       # number of overall (read+write) accesses
system.cpu7.dcache.ReadReq_miss_rate::switch_cpus7.data     0.009448                       # miss rate for ReadReq accesses
system.cpu7.dcache.ReadReq_miss_rate::total     0.009448                       # miss rate for ReadReq accesses
system.cpu7.dcache.WriteReq_miss_rate::switch_cpus7.data     0.000292                       # miss rate for WriteReq accesses
system.cpu7.dcache.WriteReq_miss_rate::total     0.000292                       # miss rate for WriteReq accesses
system.cpu7.dcache.demand_miss_rate::switch_cpus7.data     0.005566                       # miss rate for demand accesses
system.cpu7.dcache.demand_miss_rate::total     0.005566                       # miss rate for demand accesses
system.cpu7.dcache.overall_miss_rate::switch_cpus7.data     0.005566                       # miss rate for overall accesses
system.cpu7.dcache.overall_miss_rate::total     0.005566                       # miss rate for overall accesses
system.cpu7.dcache.ReadReq_avg_miss_latency::switch_cpus7.data 134852.084159                       # average ReadReq miss latency
system.cpu7.dcache.ReadReq_avg_miss_latency::total 134852.084159                       # average ReadReq miss latency
system.cpu7.dcache.WriteReq_avg_miss_latency::switch_cpus7.data 64422.720308                       # average WriteReq miss latency
system.cpu7.dcache.WriteReq_avg_miss_latency::total 64422.720308                       # average WriteReq miss latency
system.cpu7.dcache.demand_avg_miss_latency::switch_cpus7.data 133284.207429                       # average overall miss latency
system.cpu7.dcache.demand_avg_miss_latency::total 133284.207429                       # average overall miss latency
system.cpu7.dcache.overall_avg_miss_latency::switch_cpus7.data 133284.207429                       # average overall miss latency
system.cpu7.dcache.overall_avg_miss_latency::total 133284.207429                       # average overall miss latency
system.cpu7.dcache.blocked_cycles::no_mshrs            0                       # number of cycles access was blocked
system.cpu7.dcache.blocked_cycles::no_targets            0                       # number of cycles access was blocked
system.cpu7.dcache.blocked::no_mshrs                0                       # number of cycles access was blocked
system.cpu7.dcache.blocked::no_targets              0                       # number of cycles access was blocked
system.cpu7.dcache.avg_blocked_cycles::no_mshrs          nan                       # average number of cycles each access was blocked
system.cpu7.dcache.avg_blocked_cycles::no_targets          nan                       # average number of cycles each access was blocked
system.cpu7.dcache.fast_writes                      0                       # number of fast writes performed
system.cpu7.dcache.cache_copies                     0                       # number of cache copies performed
system.cpu7.dcache.writebacks::writebacks         9835                       # number of writebacks
system.cpu7.dcache.writebacks::total             9835                       # number of writebacks
system.cpu7.dcache.ReadReq_mshr_hits::switch_cpus7.data        59492                       # number of ReadReq MSHR hits
system.cpu7.dcache.ReadReq_mshr_hits::total        59492                       # number of ReadReq MSHR hits
system.cpu7.dcache.WriteReq_mshr_hits::switch_cpus7.data         1988                       # number of WriteReq MSHR hits
system.cpu7.dcache.WriteReq_mshr_hits::total         1988                       # number of WriteReq MSHR hits
system.cpu7.dcache.demand_mshr_hits::switch_cpus7.data        61480                       # number of demand (read+write) MSHR hits
system.cpu7.dcache.demand_mshr_hits::total        61480                       # number of demand (read+write) MSHR hits
system.cpu7.dcache.overall_mshr_hits::switch_cpus7.data        61480                       # number of overall MSHR hits
system.cpu7.dcache.overall_mshr_hits::total        61480                       # number of overall MSHR hits
system.cpu7.dcache.ReadReq_mshr_misses::switch_cpus7.data        37396                       # number of ReadReq MSHR misses
system.cpu7.dcache.ReadReq_mshr_misses::total        37396                       # number of ReadReq MSHR misses
system.cpu7.dcache.WriteReq_mshr_misses::switch_cpus7.data          218                       # number of WriteReq MSHR misses
system.cpu7.dcache.WriteReq_mshr_misses::total          218                       # number of WriteReq MSHR misses
system.cpu7.dcache.demand_mshr_misses::switch_cpus7.data        37614                       # number of demand (read+write) MSHR misses
system.cpu7.dcache.demand_mshr_misses::total        37614                       # number of demand (read+write) MSHR misses
system.cpu7.dcache.overall_mshr_misses::switch_cpus7.data        37614                       # number of overall MSHR misses
system.cpu7.dcache.overall_mshr_misses::total        37614                       # number of overall MSHR misses
system.cpu7.dcache.ReadReq_mshr_miss_latency::switch_cpus7.data   4952044504                       # number of ReadReq MSHR miss cycles
system.cpu7.dcache.ReadReq_mshr_miss_latency::total   4952044504                       # number of ReadReq MSHR miss cycles
system.cpu7.dcache.WriteReq_mshr_miss_latency::switch_cpus7.data     15921397                       # number of WriteReq MSHR miss cycles
system.cpu7.dcache.WriteReq_mshr_miss_latency::total     15921397                       # number of WriteReq MSHR miss cycles
system.cpu7.dcache.demand_mshr_miss_latency::switch_cpus7.data   4967965901                       # number of demand (read+write) MSHR miss cycles
system.cpu7.dcache.demand_mshr_miss_latency::total   4967965901                       # number of demand (read+write) MSHR miss cycles
system.cpu7.dcache.overall_mshr_miss_latency::switch_cpus7.data   4967965901                       # number of overall MSHR miss cycles
system.cpu7.dcache.overall_mshr_miss_latency::total   4967965901                       # number of overall MSHR miss cycles
system.cpu7.dcache.ReadReq_mshr_miss_rate::switch_cpus7.data     0.003647                       # mshr miss rate for ReadReq accesses
system.cpu7.dcache.ReadReq_mshr_miss_rate::total     0.003647                       # mshr miss rate for ReadReq accesses
system.cpu7.dcache.WriteReq_mshr_miss_rate::switch_cpus7.data     0.000029                       # mshr miss rate for WriteReq accesses
system.cpu7.dcache.WriteReq_mshr_miss_rate::total     0.000029                       # mshr miss rate for WriteReq accesses
system.cpu7.dcache.demand_mshr_miss_rate::switch_cpus7.data     0.002113                       # mshr miss rate for demand accesses
system.cpu7.dcache.demand_mshr_miss_rate::total     0.002113                       # mshr miss rate for demand accesses
system.cpu7.dcache.overall_mshr_miss_rate::switch_cpus7.data     0.002113                       # mshr miss rate for overall accesses
system.cpu7.dcache.overall_mshr_miss_rate::total     0.002113                       # mshr miss rate for overall accesses
system.cpu7.dcache.ReadReq_avg_mshr_miss_latency::switch_cpus7.data 132421.769815                       # average ReadReq mshr miss latency
system.cpu7.dcache.ReadReq_avg_mshr_miss_latency::total 132421.769815                       # average ReadReq mshr miss latency
system.cpu7.dcache.WriteReq_avg_mshr_miss_latency::switch_cpus7.data 73033.931193                       # average WriteReq mshr miss latency
system.cpu7.dcache.WriteReq_avg_mshr_miss_latency::total 73033.931193                       # average WriteReq mshr miss latency
system.cpu7.dcache.demand_avg_mshr_miss_latency::switch_cpus7.data 132077.574866                       # average overall mshr miss latency
system.cpu7.dcache.demand_avg_mshr_miss_latency::total 132077.574866                       # average overall mshr miss latency
system.cpu7.dcache.overall_avg_mshr_miss_latency::switch_cpus7.data 132077.574866                       # average overall mshr miss latency
system.cpu7.dcache.overall_avg_mshr_miss_latency::total 132077.574866                       # average overall mshr miss latency
system.cpu7.dcache.no_allocate_misses               0                       # Number of misses that were no-allocate

---------- End Simulation Statistics   ----------
