
---------- Begin Simulation Statistics ----------
sim_seconds                                  0.000958                       # Number of seconds simulated
sim_ticks                                   958193442                       # Number of ticks simulated
final_tick                               391057507179                       # Number of ticks from beginning of simulation (restored from checkpoints and never reset)
sim_freq                                 1000000000000                       # Frequency of simulated ticks
host_inst_rate                                 201716                       # Simulator instruction rate (inst/s)
host_op_rate                                   256745                       # Simulator op (including micro ops) rate (op/s)
host_tick_rate                                  32834                       # Simulator tick rate (ticks/s)
host_mem_usage                               67335132                       # Number of bytes of host memory used
host_seconds                                 29183.28                       # Real time elapsed on the host
sim_insts                                  5886738055                       # Number of instructions simulated
sim_ops                                    7492662290                       # Number of ops (including micro ops) simulated
system.physmem.bytes_read::switch_cpus0.inst         1792                       # Number of bytes read from this memory
system.physmem.bytes_read::switch_cpus0.data        29184                       # Number of bytes read from this memory
system.physmem.bytes_read::switch_cpus1.inst         1664                       # Number of bytes read from this memory
system.physmem.bytes_read::switch_cpus1.data        57216                       # Number of bytes read from this memory
system.physmem.bytes_read::switch_cpus2.inst         3072                       # Number of bytes read from this memory
system.physmem.bytes_read::switch_cpus2.data        15872                       # Number of bytes read from this memory
system.physmem.bytes_read::switch_cpus3.inst         1792                       # Number of bytes read from this memory
system.physmem.bytes_read::switch_cpus3.data        12160                       # Number of bytes read from this memory
system.physmem.bytes_read::switch_cpus4.inst         1664                       # Number of bytes read from this memory
system.physmem.bytes_read::switch_cpus4.data        56960                       # Number of bytes read from this memory
system.physmem.bytes_read::switch_cpus5.inst         1792                       # Number of bytes read from this memory
system.physmem.bytes_read::switch_cpus5.data        12800                       # Number of bytes read from this memory
system.physmem.bytes_read::switch_cpus6.inst         1792                       # Number of bytes read from this memory
system.physmem.bytes_read::switch_cpus6.data        12288                       # Number of bytes read from this memory
system.physmem.bytes_read::switch_cpus7.inst         1792                       # Number of bytes read from this memory
system.physmem.bytes_read::switch_cpus7.data        12544                       # Number of bytes read from this memory
system.physmem.bytes_read::total               224384                       # Number of bytes read from this memory
system.physmem.bytes_inst_read::switch_cpus0.inst         1792                       # Number of instructions bytes read from this memory
system.physmem.bytes_inst_read::switch_cpus1.inst         1664                       # Number of instructions bytes read from this memory
system.physmem.bytes_inst_read::switch_cpus2.inst         3072                       # Number of instructions bytes read from this memory
system.physmem.bytes_inst_read::switch_cpus3.inst         1792                       # Number of instructions bytes read from this memory
system.physmem.bytes_inst_read::switch_cpus4.inst         1664                       # Number of instructions bytes read from this memory
system.physmem.bytes_inst_read::switch_cpus5.inst         1792                       # Number of instructions bytes read from this memory
system.physmem.bytes_inst_read::switch_cpus6.inst         1792                       # Number of instructions bytes read from this memory
system.physmem.bytes_inst_read::switch_cpus7.inst         1792                       # Number of instructions bytes read from this memory
system.physmem.bytes_inst_read::total           15360                       # Number of instructions bytes read from this memory
system.physmem.bytes_written::writebacks       119680                       # Number of bytes written to this memory
system.physmem.bytes_written::total            119680                       # Number of bytes written to this memory
system.physmem.num_reads::switch_cpus0.inst           14                       # Number of read requests responded to by this memory
system.physmem.num_reads::switch_cpus0.data          228                       # Number of read requests responded to by this memory
system.physmem.num_reads::switch_cpus1.inst           13                       # Number of read requests responded to by this memory
system.physmem.num_reads::switch_cpus1.data          447                       # Number of read requests responded to by this memory
system.physmem.num_reads::switch_cpus2.inst           24                       # Number of read requests responded to by this memory
system.physmem.num_reads::switch_cpus2.data          124                       # Number of read requests responded to by this memory
system.physmem.num_reads::switch_cpus3.inst           14                       # Number of read requests responded to by this memory
system.physmem.num_reads::switch_cpus3.data           95                       # Number of read requests responded to by this memory
system.physmem.num_reads::switch_cpus4.inst           13                       # Number of read requests responded to by this memory
system.physmem.num_reads::switch_cpus4.data          445                       # Number of read requests responded to by this memory
system.physmem.num_reads::switch_cpus5.inst           14                       # Number of read requests responded to by this memory
system.physmem.num_reads::switch_cpus5.data          100                       # Number of read requests responded to by this memory
system.physmem.num_reads::switch_cpus6.inst           14                       # Number of read requests responded to by this memory
system.physmem.num_reads::switch_cpus6.data           96                       # Number of read requests responded to by this memory
system.physmem.num_reads::switch_cpus7.inst           14                       # Number of read requests responded to by this memory
system.physmem.num_reads::switch_cpus7.data           98                       # Number of read requests responded to by this memory
system.physmem.num_reads::total                  1753                       # Number of read requests responded to by this memory
system.physmem.num_writes::writebacks             935                       # Number of write requests responded to by this memory
system.physmem.num_writes::functional               0                       # Number of write requests responded to by this memory
system.physmem.num_writes::interrupt                0                       # Number of write requests responded to by this memory
system.physmem.num_writes::switch_cpus0.dtb.walker            0                       # Number of write requests responded to by this memory
system.physmem.num_writes::switch_cpus0.itb.walker            0                       # Number of write requests responded to by this memory
system.physmem.num_writes::switch_cpus0.inst            0                       # Number of write requests responded to by this memory
system.physmem.num_writes::switch_cpus0.data            0                       # Number of write requests responded to by this memory
system.physmem.num_writes::switch_cpus1.dtb.walker            0                       # Number of write requests responded to by this memory
system.physmem.num_writes::switch_cpus1.itb.walker            0                       # Number of write requests responded to by this memory
system.physmem.num_writes::switch_cpus1.inst            0                       # Number of write requests responded to by this memory
system.physmem.num_writes::switch_cpus1.data            0                       # Number of write requests responded to by this memory
system.physmem.num_writes::switch_cpus2.dtb.walker            0                       # Number of write requests responded to by this memory
system.physmem.num_writes::switch_cpus2.itb.walker            0                       # Number of write requests responded to by this memory
system.physmem.num_writes::switch_cpus2.inst            0                       # Number of write requests responded to by this memory
system.physmem.num_writes::switch_cpus2.data            0                       # Number of write requests responded to by this memory
system.physmem.num_writes::switch_cpus3.dtb.walker            0                       # Number of write requests responded to by this memory
system.physmem.num_writes::switch_cpus3.itb.walker            0                       # Number of write requests responded to by this memory
system.physmem.num_writes::switch_cpus3.inst            0                       # Number of write requests responded to by this memory
system.physmem.num_writes::switch_cpus3.data            0                       # Number of write requests responded to by this memory
system.physmem.num_writes::switch_cpus4.dtb.walker            0                       # Number of write requests responded to by this memory
system.physmem.num_writes::switch_cpus4.itb.walker            0                       # Number of write requests responded to by this memory
system.physmem.num_writes::switch_cpus4.inst            0                       # Number of write requests responded to by this memory
system.physmem.num_writes::switch_cpus4.data            0                       # Number of write requests responded to by this memory
system.physmem.num_writes::switch_cpus5.dtb.walker            0                       # Number of write requests responded to by this memory
system.physmem.num_writes::switch_cpus5.itb.walker            0                       # Number of write requests responded to by this memory
system.physmem.num_writes::switch_cpus5.inst            0                       # Number of write requests responded to by this memory
system.physmem.num_writes::switch_cpus5.data            0                       # Number of write requests responded to by this memory
system.physmem.num_writes::switch_cpus6.dtb.walker            0                       # Number of write requests responded to by this memory
system.physmem.num_writes::switch_cpus6.itb.walker            0                       # Number of write requests responded to by this memory
system.physmem.num_writes::switch_cpus6.inst            0                       # Number of write requests responded to by this memory
system.physmem.num_writes::switch_cpus6.data            0                       # Number of write requests responded to by this memory
system.physmem.num_writes::switch_cpus7.dtb.walker            0                       # Number of write requests responded to by this memory
system.physmem.num_writes::switch_cpus7.itb.walker            0                       # Number of write requests responded to by this memory
system.physmem.num_writes::switch_cpus7.inst            0                       # Number of write requests responded to by this memory
system.physmem.num_writes::switch_cpus7.data            0                       # Number of write requests responded to by this memory
system.physmem.num_writes::cpu0.dtb.walker            0                       # Number of write requests responded to by this memory
system.physmem.num_writes::cpu0.itb.walker            0                       # Number of write requests responded to by this memory
system.physmem.num_writes::cpu0.inst                0                       # Number of write requests responded to by this memory
system.physmem.num_writes::cpu0.data                0                       # Number of write requests responded to by this memory
system.physmem.num_writes::cpu1.dtb.walker            0                       # Number of write requests responded to by this memory
system.physmem.num_writes::cpu1.itb.walker            0                       # Number of write requests responded to by this memory
system.physmem.num_writes::cpu1.inst                0                       # Number of write requests responded to by this memory
system.physmem.num_writes::cpu1.data                0                       # Number of write requests responded to by this memory
system.physmem.num_writes::cpu2.dtb.walker            0                       # Number of write requests responded to by this memory
system.physmem.num_writes::cpu2.itb.walker            0                       # Number of write requests responded to by this memory
system.physmem.num_writes::cpu2.inst                0                       # Number of write requests responded to by this memory
system.physmem.num_writes::cpu2.data                0                       # Number of write requests responded to by this memory
system.physmem.num_writes::cpu3.dtb.walker            0                       # Number of write requests responded to by this memory
system.physmem.num_writes::cpu3.itb.walker            0                       # Number of write requests responded to by this memory
system.physmem.num_writes::cpu3.inst                0                       # Number of write requests responded to by this memory
system.physmem.num_writes::cpu3.data                0                       # Number of write requests responded to by this memory
system.physmem.num_writes::cpu4.dtb.walker            0                       # Number of write requests responded to by this memory
system.physmem.num_writes::cpu4.itb.walker            0                       # Number of write requests responded to by this memory
system.physmem.num_writes::cpu4.inst                0                       # Number of write requests responded to by this memory
system.physmem.num_writes::cpu4.data                0                       # Number of write requests responded to by this memory
system.physmem.num_writes::cpu5.dtb.walker            0                       # Number of write requests responded to by this memory
system.physmem.num_writes::cpu5.itb.walker            0                       # Number of write requests responded to by this memory
system.physmem.num_writes::cpu5.inst                0                       # Number of write requests responded to by this memory
system.physmem.num_writes::cpu5.data                0                       # Number of write requests responded to by this memory
system.physmem.num_writes::cpu6.dtb.walker            0                       # Number of write requests responded to by this memory
system.physmem.num_writes::cpu6.itb.walker            0                       # Number of write requests responded to by this memory
system.physmem.num_writes::cpu6.inst                0                       # Number of write requests responded to by this memory
system.physmem.num_writes::cpu6.data                0                       # Number of write requests responded to by this memory
system.physmem.num_writes::cpu7.dtb.walker            0                       # Number of write requests responded to by this memory
system.physmem.num_writes::cpu7.itb.walker            0                       # Number of write requests responded to by this memory
system.physmem.num_writes::cpu7.inst                0                       # Number of write requests responded to by this memory
system.physmem.num_writes::cpu7.data                0                       # Number of write requests responded to by this memory
system.physmem.num_writes::total                  935                       # Number of write requests responded to by this memory
system.physmem.bw_read::switch_cpus0.inst      1870186                       # Total read bandwidth from this memory (bytes/s)
system.physmem.bw_read::switch_cpus0.data     30457316                       # Total read bandwidth from this memory (bytes/s)
system.physmem.bw_read::switch_cpus1.inst      1736601                       # Total read bandwidth from this memory (bytes/s)
system.physmem.bw_read::switch_cpus1.data     59712369                       # Total read bandwidth from this memory (bytes/s)
system.physmem.bw_read::switch_cpus2.inst      3206033                       # Total read bandwidth from this memory (bytes/s)
system.physmem.bw_read::switch_cpus2.data     16564505                       # Total read bandwidth from this memory (bytes/s)
system.physmem.bw_read::switch_cpus3.inst      1870186                       # Total read bandwidth from this memory (bytes/s)
system.physmem.bw_read::switch_cpus3.data     12690548                       # Total read bandwidth from this memory (bytes/s)
system.physmem.bw_read::switch_cpus4.inst      1736601                       # Total read bandwidth from this memory (bytes/s)
system.physmem.bw_read::switch_cpus4.data     59445199                       # Total read bandwidth from this memory (bytes/s)
system.physmem.bw_read::switch_cpus5.inst      1870186                       # Total read bandwidth from this memory (bytes/s)
system.physmem.bw_read::switch_cpus5.data     13358472                       # Total read bandwidth from this memory (bytes/s)
system.physmem.bw_read::switch_cpus6.inst      1870186                       # Total read bandwidth from this memory (bytes/s)
system.physmem.bw_read::switch_cpus6.data     12824133                       # Total read bandwidth from this memory (bytes/s)
system.physmem.bw_read::switch_cpus7.inst      1870186                       # Total read bandwidth from this memory (bytes/s)
system.physmem.bw_read::switch_cpus7.data     13091302                       # Total read bandwidth from this memory (bytes/s)
system.physmem.bw_read::total               234174009                       # Total read bandwidth from this memory (bytes/s)
system.physmem.bw_inst_read::switch_cpus0.inst      1870186                       # Instruction read bandwidth from this memory (bytes/s)
system.physmem.bw_inst_read::switch_cpus1.inst      1736601                       # Instruction read bandwidth from this memory (bytes/s)
system.physmem.bw_inst_read::switch_cpus2.inst      3206033                       # Instruction read bandwidth from this memory (bytes/s)
system.physmem.bw_inst_read::switch_cpus3.inst      1870186                       # Instruction read bandwidth from this memory (bytes/s)
system.physmem.bw_inst_read::switch_cpus4.inst      1736601                       # Instruction read bandwidth from this memory (bytes/s)
system.physmem.bw_inst_read::switch_cpus5.inst      1870186                       # Instruction read bandwidth from this memory (bytes/s)
system.physmem.bw_inst_read::switch_cpus6.inst      1870186                       # Instruction read bandwidth from this memory (bytes/s)
system.physmem.bw_inst_read::switch_cpus7.inst      1870186                       # Instruction read bandwidth from this memory (bytes/s)
system.physmem.bw_inst_read::total           16030166                       # Instruction read bandwidth from this memory (bytes/s)
system.physmem.bw_write::writebacks         124901711                       # Write bandwidth from this memory (bytes/s)
system.physmem.bw_write::total              124901711                       # Write bandwidth from this memory (bytes/s)
system.physmem.bw_total::writebacks         124901711                       # Total bandwidth to/from this memory (bytes/s)
system.physmem.bw_total::switch_cpus0.inst      1870186                       # Total bandwidth to/from this memory (bytes/s)
system.physmem.bw_total::switch_cpus0.data     30457316                       # Total bandwidth to/from this memory (bytes/s)
system.physmem.bw_total::switch_cpus1.inst      1736601                       # Total bandwidth to/from this memory (bytes/s)
system.physmem.bw_total::switch_cpus1.data     59712369                       # Total bandwidth to/from this memory (bytes/s)
system.physmem.bw_total::switch_cpus2.inst      3206033                       # Total bandwidth to/from this memory (bytes/s)
system.physmem.bw_total::switch_cpus2.data     16564505                       # Total bandwidth to/from this memory (bytes/s)
system.physmem.bw_total::switch_cpus3.inst      1870186                       # Total bandwidth to/from this memory (bytes/s)
system.physmem.bw_total::switch_cpus3.data     12690548                       # Total bandwidth to/from this memory (bytes/s)
system.physmem.bw_total::switch_cpus4.inst      1736601                       # Total bandwidth to/from this memory (bytes/s)
system.physmem.bw_total::switch_cpus4.data     59445199                       # Total bandwidth to/from this memory (bytes/s)
system.physmem.bw_total::switch_cpus5.inst      1870186                       # Total bandwidth to/from this memory (bytes/s)
system.physmem.bw_total::switch_cpus5.data     13358472                       # Total bandwidth to/from this memory (bytes/s)
system.physmem.bw_total::switch_cpus6.inst      1870186                       # Total bandwidth to/from this memory (bytes/s)
system.physmem.bw_total::switch_cpus6.data     12824133                       # Total bandwidth to/from this memory (bytes/s)
system.physmem.bw_total::switch_cpus7.inst      1870186                       # Total bandwidth to/from this memory (bytes/s)
system.physmem.bw_total::switch_cpus7.data     13091302                       # Total bandwidth to/from this memory (bytes/s)
system.physmem.bw_total::total              359075720                       # Total bandwidth to/from this memory (bytes/s)
system.switch_cpus0.dtb.inst_hits                   0                       # ITB inst hits
system.switch_cpus0.dtb.inst_misses                 0                       # ITB inst misses
system.switch_cpus0.dtb.read_hits                   0                       # DTB read hits
system.switch_cpus0.dtb.read_misses                 0                       # DTB read misses
system.switch_cpus0.dtb.write_hits                  0                       # DTB write hits
system.switch_cpus0.dtb.write_misses                0                       # DTB write misses
system.switch_cpus0.dtb.flush_tlb                   0                       # Number of times complete TLB was flushed
system.switch_cpus0.dtb.flush_tlb_mva               0                       # Number of times TLB was flushed by MVA
system.switch_cpus0.dtb.flush_tlb_mva_asid            0                       # Number of times TLB was flushed by MVA & ASID
system.switch_cpus0.dtb.flush_tlb_asid              0                       # Number of times TLB was flushed by ASID
system.switch_cpus0.dtb.flush_entries               0                       # Number of entries that have been flushed from TLB
system.switch_cpus0.dtb.align_faults                0                       # Number of TLB faults due to alignment restrictions
system.switch_cpus0.dtb.prefetch_faults             0                       # Number of TLB faults due to prefetch
system.switch_cpus0.dtb.domain_faults               0                       # Number of TLB faults due to domain restrictions
system.switch_cpus0.dtb.perms_faults                0                       # Number of TLB faults due to permissions restrictions
system.switch_cpus0.dtb.read_accesses               0                       # DTB read accesses
system.switch_cpus0.dtb.write_accesses              0                       # DTB write accesses
system.switch_cpus0.dtb.inst_accesses               0                       # ITB inst accesses
system.switch_cpus0.dtb.hits                        0                       # DTB hits
system.switch_cpus0.dtb.misses                      0                       # DTB misses
system.switch_cpus0.dtb.accesses                    0                       # DTB accesses
system.switch_cpus0.itb.inst_hits                   0                       # ITB inst hits
system.switch_cpus0.itb.inst_misses                 0                       # ITB inst misses
system.switch_cpus0.itb.read_hits                   0                       # DTB read hits
system.switch_cpus0.itb.read_misses                 0                       # DTB read misses
system.switch_cpus0.itb.write_hits                  0                       # DTB write hits
system.switch_cpus0.itb.write_misses                0                       # DTB write misses
system.switch_cpus0.itb.flush_tlb                   0                       # Number of times complete TLB was flushed
system.switch_cpus0.itb.flush_tlb_mva               0                       # Number of times TLB was flushed by MVA
system.switch_cpus0.itb.flush_tlb_mva_asid            0                       # Number of times TLB was flushed by MVA & ASID
system.switch_cpus0.itb.flush_tlb_asid              0                       # Number of times TLB was flushed by ASID
system.switch_cpus0.itb.flush_entries               0                       # Number of entries that have been flushed from TLB
system.switch_cpus0.itb.align_faults                0                       # Number of TLB faults due to alignment restrictions
system.switch_cpus0.itb.prefetch_faults             0                       # Number of TLB faults due to prefetch
system.switch_cpus0.itb.domain_faults               0                       # Number of TLB faults due to domain restrictions
system.switch_cpus0.itb.perms_faults                0                       # Number of TLB faults due to permissions restrictions
system.switch_cpus0.itb.read_accesses               0                       # DTB read accesses
system.switch_cpus0.itb.write_accesses              0                       # DTB write accesses
system.switch_cpus0.itb.inst_accesses               0                       # ITB inst accesses
system.switch_cpus0.itb.hits                        0                       # DTB hits
system.switch_cpus0.itb.misses                      0                       # DTB misses
system.switch_cpus0.itb.accesses                    0                       # DTB accesses
system.cpu0.workload.num_syscalls                   0                       # Number of system calls
system.switch_cpus0.numCycles                 2297827                       # number of cpu cycles simulated
system.switch_cpus0.numWorkItemsStarted             0                       # number of work items this cpu started
system.switch_cpus0.numWorkItemsCompleted            0                       # number of work items this cpu completed
system.switch_cpus0.BPredUnit.lookups          180041                       # Number of BP lookups
system.switch_cpus0.BPredUnit.condPredicted       162026                       # Number of conditional branches predicted
system.switch_cpus0.BPredUnit.condIncorrect        11151                       # Number of conditional branches incorrect
system.switch_cpus0.BPredUnit.BTBLookups        71465                       # Number of BTB lookups
system.switch_cpus0.BPredUnit.BTBHits           62578                       # Number of BTB hits
system.switch_cpus0.BPredUnit.BTBCorrect            0                       # Number of correct BTB predictions (this stat may not work properly.
system.switch_cpus0.BPredUnit.usedRAS            9845                       # Number of times the RAS was used to get a target.
system.switch_cpus0.BPredUnit.RASInCorrect          504                       # Number of incorrect RAS predictions.
system.switch_cpus0.fetch.icacheStallCycles      1891388                       # Number of cycles fetch is stalled on an Icache miss
system.switch_cpus0.fetch.Insts               1128817                       # Number of instructions fetch has processed
system.switch_cpus0.fetch.Branches             180041                       # Number of branches that fetch encountered
system.switch_cpus0.fetch.predictedBranches        72423                       # Number of branches that fetch has predicted taken
system.switch_cpus0.fetch.Cycles               222707                       # Number of cycles fetch has run and was not squashing or blocked
system.switch_cpus0.fetch.SquashCycles          35395                       # Number of cycles fetch has spent squashing
system.switch_cpus0.fetch.BlockedCycles         40620                       # Number of cycles fetch has spent blocked
system.switch_cpus0.fetch.CacheLines           110228                       # Number of cache lines fetched
system.switch_cpus0.fetch.IcacheSquashes        11026                       # Number of outstanding Icache misses that were squashed
system.switch_cpus0.fetch.rateDist::samples      2178710                       # Number of instructions fetched each cycle (Total)
system.switch_cpus0.fetch.rateDist::mean     0.608762                       # Number of instructions fetched each cycle (Total)
system.switch_cpus0.fetch.rateDist::stdev     1.941936                       # Number of instructions fetched each cycle (Total)
system.switch_cpus0.fetch.rateDist::underflows            0      0.00%      0.00% # Number of instructions fetched each cycle (Total)
system.switch_cpus0.fetch.rateDist::0         1956003     89.78%     89.78% # Number of instructions fetched each cycle (Total)
system.switch_cpus0.fetch.rateDist::1            7961      0.37%     90.14% # Number of instructions fetched each cycle (Total)
system.switch_cpus0.fetch.rateDist::2           16351      0.75%     90.89% # Number of instructions fetched each cycle (Total)
system.switch_cpus0.fetch.rateDist::3            6729      0.31%     91.20% # Number of instructions fetched each cycle (Total)
system.switch_cpus0.fetch.rateDist::4           36102      1.66%     92.86% # Number of instructions fetched each cycle (Total)
system.switch_cpus0.fetch.rateDist::5           32533      1.49%     94.35% # Number of instructions fetched each cycle (Total)
system.switch_cpus0.fetch.rateDist::6            6264      0.29%     94.64% # Number of instructions fetched each cycle (Total)
system.switch_cpus0.fetch.rateDist::7           13327      0.61%     95.25% # Number of instructions fetched each cycle (Total)
system.switch_cpus0.fetch.rateDist::8          103440      4.75%    100.00% # Number of instructions fetched each cycle (Total)
system.switch_cpus0.fetch.rateDist::overflows            0      0.00%    100.00% # Number of instructions fetched each cycle (Total)
system.switch_cpus0.fetch.rateDist::min_value            0                       # Number of instructions fetched each cycle (Total)
system.switch_cpus0.fetch.rateDist::max_value            8                       # Number of instructions fetched each cycle (Total)
system.switch_cpus0.fetch.rateDist::total      2178710                       # Number of instructions fetched each cycle (Total)
system.switch_cpus0.fetch.branchRate         0.078353                       # Number of branch fetches per cycle
system.switch_cpus0.fetch.rate               0.491254                       # Number of inst fetches per cycle
system.switch_cpus0.decode.IdleCycles         1881090                       # Number of cycles decode is idle
system.switch_cpus0.decode.BlockedCycles        51282                       # Number of cycles decode is blocked
system.switch_cpus0.decode.RunCycles           221777                       # Number of cycles decode is running
system.switch_cpus0.decode.UnblockCycles          737                       # Number of cycles decode is unblocking
system.switch_cpus0.decode.SquashCycles         23816                       # Number of cycles decode is squashing
system.switch_cpus0.decode.BranchResolved        16030                       # Number of times decode resolved a branch
system.switch_cpus0.decode.BranchMispred          180                       # Number of times decode detected a branch misprediction
system.switch_cpus0.decode.DecodedInsts       1323546                       # Number of instructions handled by decode
system.switch_cpus0.decode.SquashedInsts         1073                       # Number of squashed instructions handled by decode
system.switch_cpus0.rename.SquashCycles         23816                       # Number of cycles rename is squashing
system.switch_cpus0.rename.IdleCycles         1883469                       # Number of cycles rename is idle
system.switch_cpus0.rename.BlockCycles          33616                       # Number of cycles rename is blocking
system.switch_cpus0.rename.serializeStallCycles        11400                       # count of cycles rename stalled for serializing inst
system.switch_cpus0.rename.RunCycles           220221                       # Number of cycles rename is running
system.switch_cpus0.rename.UnblockCycles         6180                       # Number of cycles rename is unblocking
system.switch_cpus0.rename.RenamedInsts       1321864                       # Number of instructions processed by rename
system.switch_cpus0.rename.IQFullEvents          2385                       # Number of times rename has blocked due to IQ full
system.switch_cpus0.rename.LSQFullEvents         2411                       # Number of times rename has blocked due to LSQ full
system.switch_cpus0.rename.FullRegisterEvents            3                       # Number of times there has been no free registers
system.switch_cpus0.rename.RenamedOperands      1561286                       # Number of destination operands rename has renamed
system.switch_cpus0.rename.RenameLookups      6219991                       # Number of register rename lookups that rename has made
system.switch_cpus0.rename.int_rename_lookups      6219991                       # Number of integer rename lookups
system.switch_cpus0.rename.CommittedMaps      1348966                       # Number of HB maps that are committed
system.switch_cpus0.rename.UndoneMaps          212309                       # Number of HB maps that are undone due to squashing
system.switch_cpus0.rename.serializingInsts          160                       # count of serializing insts renamed
system.switch_cpus0.rename.tempSerializingInsts           85                       # count of temporary serializing insts renamed
system.switch_cpus0.rename.skidInsts            17513                       # count of insts added to the skid buffer
system.switch_cpus0.memDep0.insertedLoads       308305                       # Number of loads inserted to the mem dependence unit.
system.switch_cpus0.memDep0.insertedStores       154734                       # Number of stores inserted to the mem dependence unit.
system.switch_cpus0.memDep0.conflictingLoads         1372                       # Number of conflicting loads.
system.switch_cpus0.memDep0.conflictingStores         7512                       # Number of conflicting stores.
system.switch_cpus0.iq.iqInstsAdded           1317281                       # Number of instructions added to the IQ (excludes non-spec)
system.switch_cpus0.iq.iqNonSpecInstsAdded          159                       # Number of non-speculative instructions added to the IQ
system.switch_cpus0.iq.iqInstsIssued          1255612                       # Number of instructions issued
system.switch_cpus0.iq.iqSquashedInstsIssued          958                       # Number of squashed instructions issued
system.switch_cpus0.iq.iqSquashedInstsExamined       122842                       # Number of squashed instructions iterated over during squash; mainly for profiling
system.switch_cpus0.iq.iqSquashedOperandsExamined       298948                       # Number of squashed operands that are examined and possibly removed from graph
system.switch_cpus0.iq.iqSquashedNonSpecRemoved           11                       # Number of squashed non-spec instructions that were removed
system.switch_cpus0.iq.issued_per_cycle::samples      2178710                       # Number of insts issued each cycle
system.switch_cpus0.iq.issued_per_cycle::mean     0.576310                       # Number of insts issued each cycle
system.switch_cpus0.iq.issued_per_cycle::stdev     1.372551                       # Number of insts issued each cycle
system.switch_cpus0.iq.issued_per_cycle::underflows            0      0.00%      0.00% # Number of insts issued each cycle
system.switch_cpus0.iq.issued_per_cycle::0      1731980     79.50%     79.50% # Number of insts issued each cycle
system.switch_cpus0.iq.issued_per_cycle::1       133814      6.14%     85.64% # Number of insts issued each cycle
system.switch_cpus0.iq.issued_per_cycle::2       109896      5.04%     90.68% # Number of insts issued each cycle
system.switch_cpus0.iq.issued_per_cycle::3        48012      2.20%     92.89% # Number of insts issued each cycle
system.switch_cpus0.iq.issued_per_cycle::4        60056      2.76%     95.64% # Number of insts issued each cycle
system.switch_cpus0.iq.issued_per_cycle::5        57891      2.66%     98.30% # Number of insts issued each cycle
system.switch_cpus0.iq.issued_per_cycle::6        32730      1.50%     99.80% # Number of insts issued each cycle
system.switch_cpus0.iq.issued_per_cycle::7         2737      0.13%     99.93% # Number of insts issued each cycle
system.switch_cpus0.iq.issued_per_cycle::8         1594      0.07%    100.00% # Number of insts issued each cycle
system.switch_cpus0.iq.issued_per_cycle::overflows            0      0.00%    100.00% # Number of insts issued each cycle
system.switch_cpus0.iq.issued_per_cycle::min_value            0                       # Number of insts issued each cycle
system.switch_cpus0.iq.issued_per_cycle::max_value            8                       # Number of insts issued each cycle
system.switch_cpus0.iq.issued_per_cycle::total      2178710                       # Number of insts issued each cycle
system.switch_cpus0.iq.fu_full::No_OpClass            0      0.00%      0.00% # attempts to use FU when none available
system.switch_cpus0.iq.fu_full::IntAlu           3185     11.22%     11.22% # attempts to use FU when none available
system.switch_cpus0.iq.fu_full::IntMult             0      0.00%     11.22% # attempts to use FU when none available
system.switch_cpus0.iq.fu_full::IntDiv              0      0.00%     11.22% # attempts to use FU when none available
system.switch_cpus0.iq.fu_full::FloatAdd            0      0.00%     11.22% # attempts to use FU when none available
system.switch_cpus0.iq.fu_full::FloatCmp            0      0.00%     11.22% # attempts to use FU when none available
system.switch_cpus0.iq.fu_full::FloatCvt            0      0.00%     11.22% # attempts to use FU when none available
system.switch_cpus0.iq.fu_full::FloatMult            0      0.00%     11.22% # attempts to use FU when none available
system.switch_cpus0.iq.fu_full::FloatDiv            0      0.00%     11.22% # attempts to use FU when none available
system.switch_cpus0.iq.fu_full::FloatSqrt            0      0.00%     11.22% # attempts to use FU when none available
system.switch_cpus0.iq.fu_full::SimdAdd             0      0.00%     11.22% # attempts to use FU when none available
system.switch_cpus0.iq.fu_full::SimdAddAcc            0      0.00%     11.22% # attempts to use FU when none available
system.switch_cpus0.iq.fu_full::SimdAlu             0      0.00%     11.22% # attempts to use FU when none available
system.switch_cpus0.iq.fu_full::SimdCmp             0      0.00%     11.22% # attempts to use FU when none available
system.switch_cpus0.iq.fu_full::SimdCvt             0      0.00%     11.22% # attempts to use FU when none available
system.switch_cpus0.iq.fu_full::SimdMisc            0      0.00%     11.22% # attempts to use FU when none available
system.switch_cpus0.iq.fu_full::SimdMult            0      0.00%     11.22% # attempts to use FU when none available
system.switch_cpus0.iq.fu_full::SimdMultAcc            0      0.00%     11.22% # attempts to use FU when none available
system.switch_cpus0.iq.fu_full::SimdShift            0      0.00%     11.22% # attempts to use FU when none available
system.switch_cpus0.iq.fu_full::SimdShiftAcc            0      0.00%     11.22% # attempts to use FU when none available
system.switch_cpus0.iq.fu_full::SimdSqrt            0      0.00%     11.22% # attempts to use FU when none available
system.switch_cpus0.iq.fu_full::SimdFloatAdd            0      0.00%     11.22% # attempts to use FU when none available
system.switch_cpus0.iq.fu_full::SimdFloatAlu            0      0.00%     11.22% # attempts to use FU when none available
system.switch_cpus0.iq.fu_full::SimdFloatCmp            0      0.00%     11.22% # attempts to use FU when none available
system.switch_cpus0.iq.fu_full::SimdFloatCvt            0      0.00%     11.22% # attempts to use FU when none available
system.switch_cpus0.iq.fu_full::SimdFloatDiv            0      0.00%     11.22% # attempts to use FU when none available
system.switch_cpus0.iq.fu_full::SimdFloatMisc            0      0.00%     11.22% # attempts to use FU when none available
system.switch_cpus0.iq.fu_full::SimdFloatMult            0      0.00%     11.22% # attempts to use FU when none available
system.switch_cpus0.iq.fu_full::SimdFloatMultAcc            0      0.00%     11.22% # attempts to use FU when none available
system.switch_cpus0.iq.fu_full::SimdFloatSqrt            0      0.00%     11.22% # attempts to use FU when none available
system.switch_cpus0.iq.fu_full::MemRead         24474     86.19%     97.41% # attempts to use FU when none available
system.switch_cpus0.iq.fu_full::MemWrite          735      2.59%    100.00% # attempts to use FU when none available
system.switch_cpus0.iq.fu_full::IprAccess            0      0.00%    100.00% # attempts to use FU when none available
system.switch_cpus0.iq.fu_full::InstPrefetch            0      0.00%    100.00% # attempts to use FU when none available
system.switch_cpus0.iq.FU_type_0::No_OpClass            0      0.00%      0.00% # Type of FU issued
system.switch_cpus0.iq.FU_type_0::IntAlu       791950     63.07%     63.07% # Type of FU issued
system.switch_cpus0.iq.FU_type_0::IntMult        10980      0.87%     63.95% # Type of FU issued
system.switch_cpus0.iq.FU_type_0::IntDiv            0      0.00%     63.95% # Type of FU issued
system.switch_cpus0.iq.FU_type_0::FloatAdd            0      0.00%     63.95% # Type of FU issued
system.switch_cpus0.iq.FU_type_0::FloatCmp            0      0.00%     63.95% # Type of FU issued
system.switch_cpus0.iq.FU_type_0::FloatCvt            0      0.00%     63.95% # Type of FU issued
system.switch_cpus0.iq.FU_type_0::FloatMult            0      0.00%     63.95% # Type of FU issued
system.switch_cpus0.iq.FU_type_0::FloatDiv            0      0.00%     63.95% # Type of FU issued
system.switch_cpus0.iq.FU_type_0::FloatSqrt            0      0.00%     63.95% # Type of FU issued
system.switch_cpus0.iq.FU_type_0::SimdAdd            0      0.00%     63.95% # Type of FU issued
system.switch_cpus0.iq.FU_type_0::SimdAddAcc            0      0.00%     63.95% # Type of FU issued
system.switch_cpus0.iq.FU_type_0::SimdAlu            0      0.00%     63.95% # Type of FU issued
system.switch_cpus0.iq.FU_type_0::SimdCmp            0      0.00%     63.95% # Type of FU issued
system.switch_cpus0.iq.FU_type_0::SimdCvt            0      0.00%     63.95% # Type of FU issued
system.switch_cpus0.iq.FU_type_0::SimdMisc            0      0.00%     63.95% # Type of FU issued
system.switch_cpus0.iq.FU_type_0::SimdMult            0      0.00%     63.95% # Type of FU issued
system.switch_cpus0.iq.FU_type_0::SimdMultAcc            0      0.00%     63.95% # Type of FU issued
system.switch_cpus0.iq.FU_type_0::SimdShift            0      0.00%     63.95% # Type of FU issued
system.switch_cpus0.iq.FU_type_0::SimdShiftAcc            0      0.00%     63.95% # Type of FU issued
system.switch_cpus0.iq.FU_type_0::SimdSqrt            0      0.00%     63.95% # Type of FU issued
system.switch_cpus0.iq.FU_type_0::SimdFloatAdd            0      0.00%     63.95% # Type of FU issued
system.switch_cpus0.iq.FU_type_0::SimdFloatAlu            0      0.00%     63.95% # Type of FU issued
system.switch_cpus0.iq.FU_type_0::SimdFloatCmp            0      0.00%     63.95% # Type of FU issued
system.switch_cpus0.iq.FU_type_0::SimdFloatCvt            0      0.00%     63.95% # Type of FU issued
system.switch_cpus0.iq.FU_type_0::SimdFloatDiv            0      0.00%     63.95% # Type of FU issued
system.switch_cpus0.iq.FU_type_0::SimdFloatMisc           75      0.01%     63.95% # Type of FU issued
system.switch_cpus0.iq.FU_type_0::SimdFloatMult            0      0.00%     63.95% # Type of FU issued
system.switch_cpus0.iq.FU_type_0::SimdFloatMultAcc            0      0.00%     63.95% # Type of FU issued
system.switch_cpus0.iq.FU_type_0::SimdFloatSqrt            0      0.00%     63.95% # Type of FU issued
system.switch_cpus0.iq.FU_type_0::MemRead       298520     23.77%     87.73% # Type of FU issued
system.switch_cpus0.iq.FU_type_0::MemWrite       154087     12.27%    100.00% # Type of FU issued
system.switch_cpus0.iq.FU_type_0::IprAccess            0      0.00%    100.00% # Type of FU issued
system.switch_cpus0.iq.FU_type_0::InstPrefetch            0      0.00%    100.00% # Type of FU issued
system.switch_cpus0.iq.FU_type_0::total       1255612                       # Type of FU issued
system.switch_cpus0.iq.rate                  0.546435                       # Inst issue rate
system.switch_cpus0.iq.fu_busy_cnt              28394                       # FU busy when requested
system.switch_cpus0.iq.fu_busy_rate          0.022614                       # FU busy rate (busy events/executed inst)
system.switch_cpus0.iq.int_inst_queue_reads      4719285                       # Number of integer instruction queue reads
system.switch_cpus0.iq.int_inst_queue_writes      1440329                       # Number of integer instruction queue writes
system.switch_cpus0.iq.int_inst_queue_wakeup_accesses      1242746                       # Number of integer instruction queue wakeup accesses
system.switch_cpus0.iq.fp_inst_queue_reads            0                       # Number of floating instruction queue reads
system.switch_cpus0.iq.fp_inst_queue_writes            0                       # Number of floating instruction queue writes
system.switch_cpus0.iq.fp_inst_queue_wakeup_accesses            0                       # Number of floating instruction queue wakeup accesses
system.switch_cpus0.iq.int_alu_accesses       1284006                       # Number of integer alu accesses
system.switch_cpus0.iq.fp_alu_accesses              0                       # Number of floating point alu accesses
system.switch_cpus0.iew.lsq.thread0.forwLoads         2225                       # Number of loads that had data forwarded from stores
system.switch_cpus0.iew.lsq.thread0.invAddrLoads            0                       # Number of loads ignored due to an invalid address
system.switch_cpus0.iew.lsq.thread0.squashedLoads        15606                       # Number of loads squashed
system.switch_cpus0.iew.lsq.thread0.ignoredResponses            8                       # Number of memory responses ignored because the instruction is squashed
system.switch_cpus0.iew.lsq.thread0.memOrderViolation           47                       # Number of memory ordering violations
system.switch_cpus0.iew.lsq.thread0.squashedStores         1643                       # Number of stores squashed
system.switch_cpus0.iew.lsq.thread0.invAddrSwpfs            0                       # Number of software prefetches ignored due to an invalid address
system.switch_cpus0.iew.lsq.thread0.blockedLoads            0                       # Number of blocked loads due to partial load-store forwarding
system.switch_cpus0.iew.lsq.thread0.rescheduledLoads          111                       # Number of loads that were rescheduled
system.switch_cpus0.iew.lsq.thread0.cacheBlocked            0                       # Number of times an access to memory failed due to the cache being blocked
system.switch_cpus0.iew.iewIdleCycles               0                       # Number of cycles IEW is idle
system.switch_cpus0.iew.iewSquashCycles         23816                       # Number of cycles IEW is squashing
system.switch_cpus0.iew.iewBlockCycles          30392                       # Number of cycles IEW is blocking
system.switch_cpus0.iew.iewUnblockCycles         1660                       # Number of cycles IEW is unblocking
system.switch_cpus0.iew.iewDispatchedInsts      1317440                       # Number of instructions dispatched to IQ
system.switch_cpus0.iew.iewDispSquashedInsts           18                       # Number of squashed instructions skipped by dispatch
system.switch_cpus0.iew.iewDispLoadInsts       308305                       # Number of dispatched load instructions
system.switch_cpus0.iew.iewDispStoreInsts       154734                       # Number of dispatched store instructions
system.switch_cpus0.iew.iewDispNonSpecInsts           85                       # Number of dispatched non-speculative instructions
system.switch_cpus0.iew.iewIQFullEvents          1154                       # Number of times the IQ has become full, causing a stall
system.switch_cpus0.iew.iewLSQFullEvents            6                       # Number of times the LSQ has become full, causing a stall
system.switch_cpus0.iew.memOrderViolationEvents           47                       # Number of memory order violations
system.switch_cpus0.iew.predictedTakenIncorrect         5723                       # Number of branches that were predicted taken incorrectly
system.switch_cpus0.iew.predictedNotTakenIncorrect         7039                       # Number of branches that were predicted not taken incorrectly
system.switch_cpus0.iew.branchMispredicts        12762                       # Number of branch mispredicts detected at execute
system.switch_cpus0.iew.iewExecutedInsts      1245381                       # Number of executed instructions
system.switch_cpus0.iew.iewExecLoadInsts       297370                       # Number of load instructions executed
system.switch_cpus0.iew.iewExecSquashedInsts        10230                       # Number of squashed instructions skipped in execute
system.switch_cpus0.iew.exec_swp                    0                       # number of swp insts executed
system.switch_cpus0.iew.exec_nop                    0                       # number of nop insts executed
system.switch_cpus0.iew.exec_refs              451419                       # number of memory reference insts executed
system.switch_cpus0.iew.exec_branches          163081                       # Number of branches executed
system.switch_cpus0.iew.exec_stores            154049                       # Number of stores executed
system.switch_cpus0.iew.exec_rate            0.541982                       # Inst execution rate
system.switch_cpus0.iew.wb_sent               1242863                       # cumulative count of insts sent to commit
system.switch_cpus0.iew.wb_count              1242746                       # cumulative count of insts written-back
system.switch_cpus0.iew.wb_producers           672920                       # num instructions producing a value
system.switch_cpus0.iew.wb_consumers          1330902                       # num instructions consuming a value
system.switch_cpus0.iew.wb_penalized                0                       # number of instrctions required to write to 'other' IQ
system.switch_cpus0.iew.wb_rate              0.540835                       # insts written-back per cycle
system.switch_cpus0.iew.wb_fanout            0.505612                       # average fanout of values written-back
system.switch_cpus0.iew.wb_penalized_rate            0                       # fraction of instructions written-back that wrote to 'other' IQ
system.switch_cpus0.commit.commitCommittedInsts      1000000                       # The number of committed instructions
system.switch_cpus0.commit.commitCommittedOps      1175558                       # The number of committed instructions
system.switch_cpus0.commit.commitSquashedInsts       142024                       # The number of squashed insts skipped by commit
system.switch_cpus0.commit.commitNonSpecStalls          148                       # The number of times commit has been forced to stall to communicate backwards
system.switch_cpus0.commit.branchMispredicts        11185                       # The number of times a branch was mispredicted
system.switch_cpus0.commit.committed_per_cycle::samples      2154894                       # Number of insts commited each cycle
system.switch_cpus0.commit.committed_per_cycle::mean     0.545529                       # Number of insts commited each cycle
system.switch_cpus0.commit.committed_per_cycle::stdev     1.367174                       # Number of insts commited each cycle
system.switch_cpus0.commit.committed_per_cycle::underflows            0      0.00%      0.00% # Number of insts commited each cycle
system.switch_cpus0.commit.committed_per_cycle::0      1727754     80.18%     80.18% # Number of insts commited each cycle
system.switch_cpus0.commit.committed_per_cycle::1       156386      7.26%     87.44% # Number of insts commited each cycle
system.switch_cpus0.commit.committed_per_cycle::2        73199      3.40%     90.83% # Number of insts commited each cycle
system.switch_cpus0.commit.committed_per_cycle::3        71982      3.34%     94.17% # Number of insts commited each cycle
system.switch_cpus0.commit.committed_per_cycle::4        19634      0.91%     95.08% # Number of insts commited each cycle
system.switch_cpus0.commit.committed_per_cycle::5        83860      3.89%     98.98% # Number of insts commited each cycle
system.switch_cpus0.commit.committed_per_cycle::6         6517      0.30%     99.28% # Number of insts commited each cycle
system.switch_cpus0.commit.committed_per_cycle::7         4606      0.21%     99.49% # Number of insts commited each cycle
system.switch_cpus0.commit.committed_per_cycle::8        10956      0.51%    100.00% # Number of insts commited each cycle
system.switch_cpus0.commit.committed_per_cycle::overflows            0      0.00%    100.00% # Number of insts commited each cycle
system.switch_cpus0.commit.committed_per_cycle::min_value            0                       # Number of insts commited each cycle
system.switch_cpus0.commit.committed_per_cycle::max_value            8                       # Number of insts commited each cycle
system.switch_cpus0.commit.committed_per_cycle::total      2154894                       # Number of insts commited each cycle
system.switch_cpus0.commit.committedInsts      1000000                       # Number of instructions committed
system.switch_cpus0.commit.committedOps       1175558                       # Number of ops (including micro ops) committed
system.switch_cpus0.commit.swp_count                0                       # Number of s/w prefetches committed
system.switch_cpus0.commit.refs                445790                       # Number of memory references committed
system.switch_cpus0.commit.loads               292699                       # Number of loads committed
system.switch_cpus0.commit.membars                 74                       # Number of memory barriers committed
system.switch_cpus0.commit.branches            155352                       # Number of branches committed
system.switch_cpus0.commit.fp_insts                 0                       # Number of committed floating point instructions.
system.switch_cpus0.commit.int_insts          1045399                       # Number of committed integer instructions.
system.switch_cpus0.commit.function_calls        11459                       # Number of function calls committed.
system.switch_cpus0.commit.bw_lim_events        10956                       # number cycles where commit BW limit reached
system.switch_cpus0.commit.bw_limited               0                       # number of insts not committed due to BW limits
system.switch_cpus0.rob.rob_reads             3461520                       # The number of ROB reads
system.switch_cpus0.rob.rob_writes            2658989                       # The number of ROB writes
system.switch_cpus0.timesIdled                  42819                       # Number of times that the entire CPU went into an idle state and unscheduled itself
system.switch_cpus0.idleCycles                 119117                       # Total number of cycles that the CPU has spent unscheduled due to idling
system.switch_cpus0.committedInsts            1000000                       # Number of Instructions Simulated
system.switch_cpus0.committedOps              1175558                       # Number of Ops (including micro ops) Simulated
system.switch_cpus0.committedInsts_total      1000000                       # Number of Instructions Simulated
system.switch_cpus0.cpi                      2.297827                       # CPI: Cycles Per Instruction
system.switch_cpus0.cpi_total                2.297827                       # CPI: Total CPI of All Threads
system.switch_cpus0.ipc                      0.435194                       # IPC: Instructions Per Cycle
system.switch_cpus0.ipc_total                0.435194                       # IPC: Total IPC of All Threads
system.switch_cpus0.int_regfile_reads         6146643                       # number of integer regfile reads
system.switch_cpus0.int_regfile_writes        1449596                       # number of integer regfile writes
system.switch_cpus0.misc_regfile_reads        1566275                       # number of misc regfile reads
system.switch_cpus0.misc_regfile_writes           148                       # number of misc regfile writes
system.switch_cpus1.dtb.inst_hits                   0                       # ITB inst hits
system.switch_cpus1.dtb.inst_misses                 0                       # ITB inst misses
system.switch_cpus1.dtb.read_hits                   0                       # DTB read hits
system.switch_cpus1.dtb.read_misses                 0                       # DTB read misses
system.switch_cpus1.dtb.write_hits                  0                       # DTB write hits
system.switch_cpus1.dtb.write_misses                0                       # DTB write misses
system.switch_cpus1.dtb.flush_tlb                   0                       # Number of times complete TLB was flushed
system.switch_cpus1.dtb.flush_tlb_mva               0                       # Number of times TLB was flushed by MVA
system.switch_cpus1.dtb.flush_tlb_mva_asid            0                       # Number of times TLB was flushed by MVA & ASID
system.switch_cpus1.dtb.flush_tlb_asid              0                       # Number of times TLB was flushed by ASID
system.switch_cpus1.dtb.flush_entries               0                       # Number of entries that have been flushed from TLB
system.switch_cpus1.dtb.align_faults                0                       # Number of TLB faults due to alignment restrictions
system.switch_cpus1.dtb.prefetch_faults             0                       # Number of TLB faults due to prefetch
system.switch_cpus1.dtb.domain_faults               0                       # Number of TLB faults due to domain restrictions
system.switch_cpus1.dtb.perms_faults                0                       # Number of TLB faults due to permissions restrictions
system.switch_cpus1.dtb.read_accesses               0                       # DTB read accesses
system.switch_cpus1.dtb.write_accesses              0                       # DTB write accesses
system.switch_cpus1.dtb.inst_accesses               0                       # ITB inst accesses
system.switch_cpus1.dtb.hits                        0                       # DTB hits
system.switch_cpus1.dtb.misses                      0                       # DTB misses
system.switch_cpus1.dtb.accesses                    0                       # DTB accesses
system.switch_cpus1.itb.inst_hits                   0                       # ITB inst hits
system.switch_cpus1.itb.inst_misses                 0                       # ITB inst misses
system.switch_cpus1.itb.read_hits                   0                       # DTB read hits
system.switch_cpus1.itb.read_misses                 0                       # DTB read misses
system.switch_cpus1.itb.write_hits                  0                       # DTB write hits
system.switch_cpus1.itb.write_misses                0                       # DTB write misses
system.switch_cpus1.itb.flush_tlb                   0                       # Number of times complete TLB was flushed
system.switch_cpus1.itb.flush_tlb_mva               0                       # Number of times TLB was flushed by MVA
system.switch_cpus1.itb.flush_tlb_mva_asid            0                       # Number of times TLB was flushed by MVA & ASID
system.switch_cpus1.itb.flush_tlb_asid              0                       # Number of times TLB was flushed by ASID
system.switch_cpus1.itb.flush_entries               0                       # Number of entries that have been flushed from TLB
system.switch_cpus1.itb.align_faults                0                       # Number of TLB faults due to alignment restrictions
system.switch_cpus1.itb.prefetch_faults             0                       # Number of TLB faults due to prefetch
system.switch_cpus1.itb.domain_faults               0                       # Number of TLB faults due to domain restrictions
system.switch_cpus1.itb.perms_faults                0                       # Number of TLB faults due to permissions restrictions
system.switch_cpus1.itb.read_accesses               0                       # DTB read accesses
system.switch_cpus1.itb.write_accesses              0                       # DTB write accesses
system.switch_cpus1.itb.inst_accesses               0                       # ITB inst accesses
system.switch_cpus1.itb.hits                        0                       # DTB hits
system.switch_cpus1.itb.misses                      0                       # DTB misses
system.switch_cpus1.itb.accesses                    0                       # DTB accesses
system.cpu1.workload.num_syscalls                   0                       # Number of system calls
system.switch_cpus1.numCycles                 2297827                       # number of cpu cycles simulated
system.switch_cpus1.numWorkItemsStarted             0                       # number of work items this cpu started
system.switch_cpus1.numWorkItemsCompleted            0                       # number of work items this cpu completed
system.switch_cpus1.BPredUnit.lookups          179988                       # Number of BP lookups
system.switch_cpus1.BPredUnit.condPredicted       146761                       # Number of conditional branches predicted
system.switch_cpus1.BPredUnit.condIncorrect        19165                       # Number of conditional branches incorrect
system.switch_cpus1.BPredUnit.BTBLookups        73992                       # Number of BTB lookups
system.switch_cpus1.BPredUnit.BTBHits           68763                       # Number of BTB hits
system.switch_cpus1.BPredUnit.BTBCorrect            0                       # Number of correct BTB predictions (this stat may not work properly.
system.switch_cpus1.BPredUnit.usedRAS           17806                       # Number of times the RAS was used to get a target.
system.switch_cpus1.BPredUnit.RASInCorrect          828                       # Number of incorrect RAS predictions.
system.switch_cpus1.fetch.icacheStallCycles      1745785                       # Number of cycles fetch is stalled on an Icache miss
system.switch_cpus1.fetch.Insts               1064048                       # Number of instructions fetch has processed
system.switch_cpus1.fetch.Branches             179988                       # Number of branches that fetch encountered
system.switch_cpus1.fetch.predictedBranches        86569                       # Number of branches that fetch has predicted taken
system.switch_cpus1.fetch.Cycles               218564                       # Number of cycles fetch has run and was not squashing or blocked
system.switch_cpus1.fetch.SquashCycles          59719                       # Number of cycles fetch has spent squashing
system.switch_cpus1.fetch.BlockedCycles         53063                       # Number of cycles fetch has spent blocked
system.switch_cpus1.fetch.CacheLines           109196                       # Number of cache lines fetched
system.switch_cpus1.fetch.IcacheSquashes        19191                       # Number of outstanding Icache misses that were squashed
system.switch_cpus1.fetch.rateDist::samples      2057282                       # Number of instructions fetched each cycle (Total)
system.switch_cpus1.fetch.rateDist::mean     0.628951                       # Number of instructions fetched each cycle (Total)
system.switch_cpus1.fetch.rateDist::stdev     1.995400                       # Number of instructions fetched each cycle (Total)
system.switch_cpus1.fetch.rateDist::underflows            0      0.00%      0.00% # Number of instructions fetched each cycle (Total)
system.switch_cpus1.fetch.rateDist::0         1838718     89.38%     89.38% # Number of instructions fetched each cycle (Total)
system.switch_cpus1.fetch.rateDist::1           11517      0.56%     89.94% # Number of instructions fetched each cycle (Total)
system.switch_cpus1.fetch.rateDist::2           18385      0.89%     90.83% # Number of instructions fetched each cycle (Total)
system.switch_cpus1.fetch.rateDist::3           27426      1.33%     92.16% # Number of instructions fetched each cycle (Total)
system.switch_cpus1.fetch.rateDist::4           11767      0.57%     92.73% # Number of instructions fetched each cycle (Total)
system.switch_cpus1.fetch.rateDist::5           13774      0.67%     93.40% # Number of instructions fetched each cycle (Total)
system.switch_cpus1.fetch.rateDist::6           14067      0.68%     94.09% # Number of instructions fetched each cycle (Total)
system.switch_cpus1.fetch.rateDist::7            9999      0.49%     94.57% # Number of instructions fetched each cycle (Total)
system.switch_cpus1.fetch.rateDist::8          111629      5.43%    100.00% # Number of instructions fetched each cycle (Total)
system.switch_cpus1.fetch.rateDist::overflows            0      0.00%    100.00% # Number of instructions fetched each cycle (Total)
system.switch_cpus1.fetch.rateDist::min_value            0                       # Number of instructions fetched each cycle (Total)
system.switch_cpus1.fetch.rateDist::max_value            8                       # Number of instructions fetched each cycle (Total)
system.switch_cpus1.fetch.rateDist::total      2057282                       # Number of instructions fetched each cycle (Total)
system.switch_cpus1.fetch.branchRate         0.078330                       # Number of branch fetches per cycle
system.switch_cpus1.fetch.rate               0.463067                       # Number of inst fetches per cycle
system.switch_cpus1.decode.IdleCycles         1724884                       # Number of cycles decode is idle
system.switch_cpus1.decode.BlockedCycles        74616                       # Number of cycles decode is blocked
system.switch_cpus1.decode.RunCycles           216892                       # Number of cycles decode is running
system.switch_cpus1.decode.UnblockCycles         1324                       # Number of cycles decode is unblocking
system.switch_cpus1.decode.SquashCycles         39563                       # Number of cycles decode is squashing
system.switch_cpus1.decode.BranchResolved        29222                       # Number of times decode resolved a branch
system.switch_cpus1.decode.BranchMispred          312                       # Number of times decode detected a branch misprediction
system.switch_cpus1.decode.DecodedInsts       1290013                       # Number of instructions handled by decode
system.switch_cpus1.decode.SquashedInsts         1072                       # Number of squashed instructions handled by decode
system.switch_cpus1.rename.SquashCycles         39563                       # Number of cycles rename is squashing
system.switch_cpus1.rename.IdleCycles         1729048                       # Number of cycles rename is idle
system.switch_cpus1.rename.BlockCycles          36737                       # Number of cycles rename is blocking
system.switch_cpus1.rename.serializeStallCycles        25057                       # count of cycles rename stalled for serializing inst
system.switch_cpus1.rename.RunCycles           214189                       # Number of cycles rename is running
system.switch_cpus1.rename.UnblockCycles        12685                       # Number of cycles rename is unblocking
system.switch_cpus1.rename.RenamedInsts       1287236                       # Number of instructions processed by rename
system.switch_cpus1.rename.ROBFullEvents          562                       # Number of times rename has blocked due to ROB full
system.switch_cpus1.rename.IQFullEvents          2491                       # Number of times rename has blocked due to IQ full
system.switch_cpus1.rename.LSQFullEvents         6493                       # Number of times rename has blocked due to LSQ full
system.switch_cpus1.rename.FullRegisterEvents          820                       # Number of times there has been no free registers
system.switch_cpus1.rename.RenamedOperands      1762072                       # Number of destination operands rename has renamed
system.switch_cpus1.rename.RenameLookups      6000740                       # Number of register rename lookups that rename has made
system.switch_cpus1.rename.int_rename_lookups      6000740                       # Number of integer rename lookups
system.switch_cpus1.rename.CommittedMaps      1450722                       # Number of HB maps that are committed
system.switch_cpus1.rename.UndoneMaps          311339                       # Number of HB maps that are undone due to squashing
system.switch_cpus1.rename.serializingInsts          274                       # count of serializing insts renamed
system.switch_cpus1.rename.tempSerializingInsts          142                       # count of temporary serializing insts renamed
system.switch_cpus1.rename.skidInsts            37696                       # count of insts added to the skid buffer
system.switch_cpus1.memDep0.insertedLoads       130304                       # Number of loads inserted to the mem dependence unit.
system.switch_cpus1.memDep0.insertedStores        71766                       # Number of stores inserted to the mem dependence unit.
system.switch_cpus1.memDep0.conflictingLoads         3574                       # Number of conflicting loads.
system.switch_cpus1.memDep0.conflictingStores        14704                       # Number of conflicting stores.
system.switch_cpus1.iq.iqInstsAdded           1282616                       # Number of instructions added to the IQ (excludes non-spec)
system.switch_cpus1.iq.iqNonSpecInstsAdded          274                       # Number of non-speculative instructions added to the IQ
system.switch_cpus1.iq.iqInstsIssued          1196276                       # Number of instructions issued
system.switch_cpus1.iq.iqSquashedInstsIssued         1837                       # Number of squashed instructions issued
system.switch_cpus1.iq.iqSquashedInstsExamined       198802                       # Number of squashed instructions iterated over during squash; mainly for profiling
system.switch_cpus1.iq.iqSquashedOperandsExamined       458380                       # Number of squashed operands that are examined and possibly removed from graph
system.switch_cpus1.iq.iqSquashedNonSpecRemoved           10                       # Number of squashed non-spec instructions that were removed
system.switch_cpus1.iq.issued_per_cycle::samples      2057282                       # Number of insts issued each cycle
system.switch_cpus1.iq.issued_per_cycle::mean     0.581484                       # Number of insts issued each cycle
system.switch_cpus1.iq.issued_per_cycle::stdev     1.266120                       # Number of insts issued each cycle
system.switch_cpus1.iq.issued_per_cycle::underflows            0      0.00%      0.00% # Number of insts issued each cycle
system.switch_cpus1.iq.issued_per_cycle::0      1547734     75.23%     75.23% # Number of insts issued each cycle
system.switch_cpus1.iq.issued_per_cycle::1       206766     10.05%     85.28% # Number of insts issued each cycle
system.switch_cpus1.iq.issued_per_cycle::2       114102      5.55%     90.83% # Number of insts issued each cycle
system.switch_cpus1.iq.issued_per_cycle::3        74645      3.63%     94.46% # Number of insts issued each cycle
system.switch_cpus1.iq.issued_per_cycle::4        68749      3.34%     97.80% # Number of insts issued each cycle
system.switch_cpus1.iq.issued_per_cycle::5        21490      1.04%     98.84% # Number of insts issued each cycle
system.switch_cpus1.iq.issued_per_cycle::6        15024      0.73%     99.57% # Number of insts issued each cycle
system.switch_cpus1.iq.issued_per_cycle::7         5395      0.26%     99.84% # Number of insts issued each cycle
system.switch_cpus1.iq.issued_per_cycle::8         3377      0.16%    100.00% # Number of insts issued each cycle
system.switch_cpus1.iq.issued_per_cycle::overflows            0      0.00%    100.00% # Number of insts issued each cycle
system.switch_cpus1.iq.issued_per_cycle::min_value            0                       # Number of insts issued each cycle
system.switch_cpus1.iq.issued_per_cycle::max_value            8                       # Number of insts issued each cycle
system.switch_cpus1.iq.issued_per_cycle::total      2057282                       # Number of insts issued each cycle
system.switch_cpus1.iq.fu_full::No_OpClass            0      0.00%      0.00% # attempts to use FU when none available
system.switch_cpus1.iq.fu_full::IntAlu            319     10.71%     10.71% # attempts to use FU when none available
system.switch_cpus1.iq.fu_full::IntMult             0      0.00%     10.71% # attempts to use FU when none available
system.switch_cpus1.iq.fu_full::IntDiv              0      0.00%     10.71% # attempts to use FU when none available
system.switch_cpus1.iq.fu_full::FloatAdd            0      0.00%     10.71% # attempts to use FU when none available
system.switch_cpus1.iq.fu_full::FloatCmp            0      0.00%     10.71% # attempts to use FU when none available
system.switch_cpus1.iq.fu_full::FloatCvt            0      0.00%     10.71% # attempts to use FU when none available
system.switch_cpus1.iq.fu_full::FloatMult            0      0.00%     10.71% # attempts to use FU when none available
system.switch_cpus1.iq.fu_full::FloatDiv            0      0.00%     10.71% # attempts to use FU when none available
system.switch_cpus1.iq.fu_full::FloatSqrt            0      0.00%     10.71% # attempts to use FU when none available
system.switch_cpus1.iq.fu_full::SimdAdd             0      0.00%     10.71% # attempts to use FU when none available
system.switch_cpus1.iq.fu_full::SimdAddAcc            0      0.00%     10.71% # attempts to use FU when none available
system.switch_cpus1.iq.fu_full::SimdAlu             0      0.00%     10.71% # attempts to use FU when none available
system.switch_cpus1.iq.fu_full::SimdCmp             0      0.00%     10.71% # attempts to use FU when none available
system.switch_cpus1.iq.fu_full::SimdCvt             0      0.00%     10.71% # attempts to use FU when none available
system.switch_cpus1.iq.fu_full::SimdMisc            0      0.00%     10.71% # attempts to use FU when none available
system.switch_cpus1.iq.fu_full::SimdMult            0      0.00%     10.71% # attempts to use FU when none available
system.switch_cpus1.iq.fu_full::SimdMultAcc            0      0.00%     10.71% # attempts to use FU when none available
system.switch_cpus1.iq.fu_full::SimdShift            0      0.00%     10.71% # attempts to use FU when none available
system.switch_cpus1.iq.fu_full::SimdShiftAcc            0      0.00%     10.71% # attempts to use FU when none available
system.switch_cpus1.iq.fu_full::SimdSqrt            0      0.00%     10.71% # attempts to use FU when none available
system.switch_cpus1.iq.fu_full::SimdFloatAdd            0      0.00%     10.71% # attempts to use FU when none available
system.switch_cpus1.iq.fu_full::SimdFloatAlu            0      0.00%     10.71% # attempts to use FU when none available
system.switch_cpus1.iq.fu_full::SimdFloatCmp            0      0.00%     10.71% # attempts to use FU when none available
system.switch_cpus1.iq.fu_full::SimdFloatCvt            0      0.00%     10.71% # attempts to use FU when none available
system.switch_cpus1.iq.fu_full::SimdFloatDiv            0      0.00%     10.71% # attempts to use FU when none available
system.switch_cpus1.iq.fu_full::SimdFloatMisc            0      0.00%     10.71% # attempts to use FU when none available
system.switch_cpus1.iq.fu_full::SimdFloatMult            0      0.00%     10.71% # attempts to use FU when none available
system.switch_cpus1.iq.fu_full::SimdFloatMultAcc            0      0.00%     10.71% # attempts to use FU when none available
system.switch_cpus1.iq.fu_full::SimdFloatSqrt            0      0.00%     10.71% # attempts to use FU when none available
system.switch_cpus1.iq.fu_full::MemRead          1268     42.58%     53.29% # attempts to use FU when none available
system.switch_cpus1.iq.fu_full::MemWrite         1391     46.71%    100.00% # attempts to use FU when none available
system.switch_cpus1.iq.fu_full::IprAccess            0      0.00%    100.00% # attempts to use FU when none available
system.switch_cpus1.iq.fu_full::InstPrefetch            0      0.00%    100.00% # attempts to use FU when none available
system.switch_cpus1.iq.FU_type_0::No_OpClass            0      0.00%      0.00% # Type of FU issued
system.switch_cpus1.iq.FU_type_0::IntAlu       985492     82.38%     82.38% # Type of FU issued
system.switch_cpus1.iq.FU_type_0::IntMult        21978      1.84%     84.22% # Type of FU issued
system.switch_cpus1.iq.FU_type_0::IntDiv            0      0.00%     84.22% # Type of FU issued
system.switch_cpus1.iq.FU_type_0::FloatAdd            0      0.00%     84.22% # Type of FU issued
system.switch_cpus1.iq.FU_type_0::FloatCmp            0      0.00%     84.22% # Type of FU issued
system.switch_cpus1.iq.FU_type_0::FloatCvt            0      0.00%     84.22% # Type of FU issued
system.switch_cpus1.iq.FU_type_0::FloatMult            0      0.00%     84.22% # Type of FU issued
system.switch_cpus1.iq.FU_type_0::FloatDiv            0      0.00%     84.22% # Type of FU issued
system.switch_cpus1.iq.FU_type_0::FloatSqrt            0      0.00%     84.22% # Type of FU issued
system.switch_cpus1.iq.FU_type_0::SimdAdd            0      0.00%     84.22% # Type of FU issued
system.switch_cpus1.iq.FU_type_0::SimdAddAcc            0      0.00%     84.22% # Type of FU issued
system.switch_cpus1.iq.FU_type_0::SimdAlu            0      0.00%     84.22% # Type of FU issued
system.switch_cpus1.iq.FU_type_0::SimdCmp            0      0.00%     84.22% # Type of FU issued
system.switch_cpus1.iq.FU_type_0::SimdCvt            0      0.00%     84.22% # Type of FU issued
[...]
system.cpu7.icache.ReadReq_miss_latency::total      2553973                       # number of ReadReq miss cycles
system.cpu7.icache.demand_miss_latency::switch_cpus7.inst      2553973                       # number of demand (read+write) miss cycles
system.cpu7.icache.demand_miss_latency::total      2553973                       # number of demand (read+write) miss cycles
system.cpu7.icache.overall_miss_latency::switch_cpus7.inst      2553973                       # number of overall miss cycles
system.cpu7.icache.overall_miss_latency::total      2553973                       # number of overall miss cycles
system.cpu7.icache.ReadReq_accesses::switch_cpus7.inst       112706                       # number of ReadReq accesses(hits+misses)
system.cpu7.icache.ReadReq_accesses::total       112706                       # number of ReadReq accesses(hits+misses)
system.cpu7.icache.demand_accesses::switch_cpus7.inst       112706                       # number of demand (read+write) accesses
system.cpu7.icache.demand_accesses::total       112706                       # number of demand (read+write) accesses
system.cpu7.icache.overall_accesses::switch_cpus7.inst       112706                       # number of overall (read+write) accesses
system.cpu7.icache.overall_accesses::total       112706                       # number of overall (read+write) accesses
system.cpu7.icache.ReadReq_miss_rate::switch_cpus7.inst     0.000133                       # miss rate for ReadReq accesses
system.cpu7.icache.ReadReq_miss_rate::total     0.000133                       # miss rate for ReadReq accesses
system.cpu7.icache.demand_miss_rate::switch_cpus7.inst     0.000133                       # miss rate for demand accesses
system.cpu7.icache.demand_miss_rate::total     0.000133                       # miss rate for demand accesses
system.cpu7.icache.overall_miss_rate::switch_cpus7.inst     0.000133                       # miss rate for overall accesses
system.cpu7.icache.overall_miss_rate::total     0.000133                       # miss rate for overall accesses
system.cpu7.icache.ReadReq_avg_miss_latency::switch_cpus7.inst 170264.866667                       # average ReadReq miss latency
system.cpu7.icache.ReadReq_avg_miss_latency::total 170264.866667                       # average ReadReq miss latency
system.cpu7.icache.demand_avg_miss_latency::switch_cpus7.inst 170264.866667                       # average overall miss latency
system.cpu7.icache.demand_avg_miss_latency::total 170264.866667                       # average overall miss latency
system.cpu7.icache.overall_avg_miss_latency::switch_cpus7.inst 170264.866667                       # average overall miss latency
system.cpu7.icache.overall_avg_miss_latency::total 170264.866667                       # average overall miss latency
system.cpu7.icache.blocked_cycles::no_mshrs            0                       # number of cycles access was blocked
system.cpu7.icache.blocked_cycles::no_targets            0                       # number of cycles access was blocked
system.cpu7.icache.blocked::no_mshrs                0                       # number of cycles access was blocked
system.cpu7.icache.blocked::no_targets              0                       # number of cycles access was blocked
system.cpu7.icache.avg_blocked_cycles::no_mshrs          nan                       # average number of cycles each access was blocked
system.cpu7.icache.avg_blocked_cycles::no_targets          nan                       # average number of cycles each access was blocked
system.cpu7.icache.fast_writes                      0                       # number of fast writes performed
system.cpu7.icache.cache_copies                     0                       # number of cache copies performed
system.cpu7.icache.ReadReq_mshr_hits::switch_cpus7.inst            1                       # number of ReadReq MSHR hits
system.cpu7.icache.ReadReq_mshr_hits::total            1                       # number of ReadReq MSHR hits
system.cpu7.icache.demand_mshr_hits::switch_cpus7.inst            1                       # number of demand (read+write) MSHR hits
system.cpu7.icache.demand_mshr_hits::total            1                       # number of demand (read+write) MSHR hits
system.cpu7.icache.overall_mshr_hits::switch_cpus7.inst            1                       # number of overall MSHR hits
system.cpu7.icache.overall_mshr_hits::total            1                       # number of overall MSHR hits
system.cpu7.icache.ReadReq_mshr_misses::switch_cpus7.inst           14                       # number of ReadReq MSHR misses
system.cpu7.icache.ReadReq_mshr_misses::total           14                       # number of ReadReq MSHR misses
system.cpu7.icache.demand_mshr_misses::switch_cpus7.inst           14                       # number of demand (read+write) MSHR misses
system.cpu7.icache.demand_mshr_misses::total           14                       # number of demand (read+write) MSHR misses
system.cpu7.icache.overall_mshr_misses::switch_cpus7.inst           14                       # number of overall MSHR misses
system.cpu7.icache.overall_mshr_misses::total           14                       # number of overall MSHR misses
system.cpu7.icache.ReadReq_mshr_miss_latency::switch_cpus7.inst      2306570                       # number of ReadReq MSHR miss cycles
system.cpu7.icache.ReadReq_mshr_miss_latency::total      2306570                       # number of ReadReq MSHR miss cycles
system.cpu7.icache.demand_mshr_miss_latency::switch_cpus7.inst      2306570                       # number of demand (read+write) MSHR miss cycles
system.cpu7.icache.demand_mshr_miss_latency::total      2306570                       # number of demand (read+write) MSHR miss cycles
system.cpu7.icache.overall_mshr_miss_latency::switch_cpus7.inst      2306570                       # number of overall MSHR miss cycles
system.cpu7.icache.overall_mshr_miss_latency::total      2306570                       # number of overall MSHR miss cycles
system.cpu7.icache.ReadReq_mshr_miss_rate::switch_cpus7.inst     0.000124                       # mshr miss rate for ReadReq accesses
system.cpu7.icache.ReadReq_mshr_miss_rate::total     0.000124                       # mshr miss rate for ReadReq accesses
system.cpu7.icache.demand_mshr_miss_rate::switch_cpus7.inst     0.000124                       # mshr miss rate for demand accesses
system.cpu7.icache.demand_mshr_miss_rate::total     0.000124                       # mshr miss rate for demand accesses
system.cpu7.icache.overall_mshr_miss_rate::switch_cpus7.inst     0.000124                       # mshr miss rate for overall accesses
system.cpu7.icache.overall_mshr_miss_rate::total     0.000124                       # mshr miss rate for overall accesses
system.cpu7.icache.ReadReq_avg_mshr_miss_latency::switch_cpus7.inst       164755                       # average ReadReq mshr miss latency
system.cpu7.icache.ReadReq_avg_mshr_miss_latency::total       164755                       # average ReadReq mshr miss latency
system.cpu7.icache.demand_avg_mshr_miss_latency::switch_cpus7.inst       164755                       # average overall mshr miss latency
system.cpu7.icache.demand_avg_mshr_miss_latency::total       164755                       # average overall mshr miss latency
system.cpu7.icache.overall_avg_mshr_miss_latency::switch_cpus7.inst       164755                       # average overall mshr miss latency
system.cpu7.icache.overall_avg_mshr_miss_latency::total       164755                       # average overall mshr miss latency
system.cpu7.icache.no_allocate_misses               0                       # Number of misses that were no-allocate
system.cpu7.dcache.replacements                   370                       # number of replacements
system.cpu7.dcache.tagsinuse                      256                       # Cycle average of tags in use
system.cpu7.dcache.total_refs               110531258                       # Total number of references to valid blocks.
system.cpu7.dcache.sampled_refs                   626                       # Sample count of references to valid blocks.
system.cpu7.dcache.avg_refs              176567.504792                       # Average number of references to valid blocks.
system.cpu7.dcache.warmup_cycle                     0                       # Cycle when the warmup percentage was hit.
system.cpu7.dcache.occ_blocks::switch_cpus7.data   139.703140                       # Average occupied blocks per requestor
system.cpu7.dcache.occ_blocks::cpu7.data   116.296860                       # Average occupied blocks per requestor
system.cpu7.dcache.occ_percent::switch_cpus7.data     0.545715                       # Average percentage of cache occupancy
system.cpu7.dcache.occ_percent::cpu7.data     0.454285                       # Average percentage of cache occupancy
system.cpu7.dcache.occ_percent::total               1                       # Average percentage of cache occupancy
system.cpu7.dcache.ReadReq_hits::switch_cpus7.data        76256                       # number of ReadReq hits
system.cpu7.dcache.ReadReq_hits::total          76256                       # number of ReadReq hits
system.cpu7.dcache.WriteReq_hits::switch_cpus7.data        63556                       # number of WriteReq hits
system.cpu7.dcache.WriteReq_hits::total         63556                       # number of WriteReq hits
system.cpu7.dcache.LoadLockedReq_hits::switch_cpus7.data          152                       # number of LoadLockedReq hits
system.cpu7.dcache.LoadLockedReq_hits::total          152                       # number of LoadLockedReq hits
system.cpu7.dcache.StoreCondReq_hits::switch_cpus7.data          152                       # number of StoreCondReq hits
system.cpu7.dcache.StoreCondReq_hits::total          152                       # number of StoreCondReq hits
system.cpu7.dcache.demand_hits::switch_cpus7.data       139812                       # number of demand (read+write) hits
system.cpu7.dcache.demand_hits::total          139812                       # number of demand (read+write) hits
system.cpu7.dcache.overall_hits::switch_cpus7.data       139812                       # number of overall hits
system.cpu7.dcache.overall_hits::total         139812                       # number of overall hits
system.cpu7.dcache.ReadReq_misses::switch_cpus7.data         1212                       # number of ReadReq misses
system.cpu7.dcache.ReadReq_misses::total         1212                       # number of ReadReq misses
system.cpu7.dcache.demand_misses::switch_cpus7.data         1212                       # number of demand (read+write) misses
system.cpu7.dcache.demand_misses::total          1212                       # number of demand (read+write) misses
system.cpu7.dcache.overall_misses::switch_cpus7.data         1212                       # number of overall misses
system.cpu7.dcache.overall_misses::total         1212                       # number of overall misses
system.cpu7.dcache.ReadReq_miss_latency::switch_cpus7.data    135988396                       # number of ReadReq miss cycles
system.cpu7.dcache.ReadReq_miss_latency::total    135988396                       # number of ReadReq miss cycles
system.cpu7.dcache.demand_miss_latency::switch_cpus7.data    135988396                       # number of demand (read+write) miss cycles
system.cpu7.dcache.demand_miss_latency::total    135988396                       # number of demand (read+write) miss cycles
system.cpu7.dcache.overall_miss_latency::switch_cpus7.data    135988396                       # number of overall miss cycles
system.cpu7.dcache.overall_miss_latency::total    135988396                       # number of overall miss cycles
system.cpu7.dcache.ReadReq_accesses::switch_cpus7.data        77468                       # number of ReadReq accesses(hits+misses)
system.cpu7.dcache.ReadReq_accesses::total        77468                       # number of ReadReq accesses(hits+misses)
system.cpu7.dcache.WriteReq_accesses::switch_cpus7.data        63556                       # number of WriteReq accesses(hits+misses)
system.cpu7.dcache.WriteReq_accesses::total        63556                       # number of WriteReq accesses(hits+misses)
system.cpu7.dcache.LoadLockedReq_accesses::switch_cpus7.data          152                       # number of LoadLockedReq accesses(hits+misses)
system.cpu7.dcache.LoadLockedReq_accesses::total          152                       # number of LoadLockedReq accesses(hits+misses)
system.cpu7.dcache.StoreCondReq_accesses::switch_cpus7.data          152                       # number of StoreCondReq accesses(hits+misses)
system.cpu7.dcache.StoreCondReq_accesses::total          152                       # number of StoreCondReq accesses(hits+misses)
system.cpu7.dcache.demand_accesses::switch_cpus7.data       141024                       # number of demand (read+write) accesses
system.cpu7.dcache.demand_accesses::total       141024                       # number of demand (read+write) accesses
system.cpu7.dcache.overall_accesses::switch_cpus7.data       141024                       # number of overall (read+write) accesses
system.cpu7.dcache.overall_accesses::total       141024                       # number of overall (read+write) accesses
system.cpu7.dcache.ReadReq_miss_rate::switch_cpus7.data     0.015645                       # miss rate for ReadReq accesses
system.cpu7.dcache.ReadReq_miss_rate::total     0.015645                       # miss rate for ReadReq accesses
system.cpu7.dcache.demand_miss_rate::switch_cpus7.data     0.008594                       # miss rate for demand accesses
system.cpu7.dcache.demand_miss_rate::total     0.008594                       # miss rate for demand accesses
system.cpu7.dcache.overall_miss_rate::switch_cpus7.data     0.008594                       # miss rate for overall accesses
system.cpu7.dcache.overall_miss_rate::total     0.008594                       # miss rate for overall accesses
system.cpu7.dcache.ReadReq_avg_miss_latency::switch_cpus7.data 112201.646865                       # average ReadReq miss latency
system.cpu7.dcache.ReadReq_avg_miss_latency::total 112201.646865                       # average ReadReq miss latency
system.cpu7.dcache.demand_avg_miss_latency::switch_cpus7.data 112201.646865                       # average overall miss latency
system.cpu7.dcache.demand_avg_miss_latency::total 112201.646865                       # average overall miss latency
system.cpu7.dcache.overall_avg_miss_latency::switch_cpus7.data 112201.646865                       # average overall miss latency
system.cpu7.dcache.overall_avg_miss_latency::total 112201.646865                       # average overall miss latency
system.cpu7.dcache.blocked_cycles::no_mshrs            0                       # number of cycles access was blocked
system.cpu7.dcache.blocked_cycles::no_targets            0                       # number of cycles access was blocked
system.cpu7.dcache.blocked::no_mshrs                0                       # number of cycles access was blocked
system.cpu7.dcache.blocked::no_targets              0                       # number of cycles access was blocked
system.cpu7.dcache.avg_blocked_cycles::no_mshrs          nan                       # average number of cycles each access was blocked
system.cpu7.dcache.avg_blocked_cycles::no_targets          nan                       # average number of cycles each access was blocked
system.cpu7.dcache.fast_writes                      0                       # number of fast writes performed
system.cpu7.dcache.cache_copies                     0                       # number of cache copies performed
system.cpu7.dcache.writebacks::writebacks           86                       # number of writebacks
system.cpu7.dcache.writebacks::total               86                       # number of writebacks
system.cpu7.dcache.ReadReq_mshr_hits::switch_cpus7.data          842                       # number of ReadReq MSHR hits
system.cpu7.dcache.ReadReq_mshr_hits::total          842                       # number of ReadReq MSHR hits
system.cpu7.dcache.demand_mshr_hits::switch_cpus7.data          842                       # number of demand (read+write) MSHR hits
system.cpu7.dcache.demand_mshr_hits::total          842                       # number of demand (read+write) MSHR hits
system.cpu7.dcache.overall_mshr_hits::switch_cpus7.data          842                       # number of overall MSHR hits
system.cpu7.dcache.overall_mshr_hits::total          842                       # number of overall MSHR hits
system.cpu7.dcache.ReadReq_mshr_misses::switch_cpus7.data          370                       # number of ReadReq MSHR misses
system.cpu7.dcache.ReadReq_mshr_misses::total          370                       # number of ReadReq MSHR misses
system.cpu7.dcache.demand_mshr_misses::switch_cpus7.data          370                       # number of demand (read+write) MSHR misses
system.cpu7.dcache.demand_mshr_misses::total          370                       # number of demand (read+write) MSHR misses
system.cpu7.dcache.overall_mshr_misses::switch_cpus7.data          370                       # number of overall MSHR misses
system.cpu7.dcache.overall_mshr_misses::total          370                       # number of overall MSHR misses
system.cpu7.dcache.ReadReq_mshr_miss_latency::switch_cpus7.data     33754732                       # number of ReadReq MSHR miss cycles
system.cpu7.dcache.ReadReq_mshr_miss_latency::total     33754732                       # number of ReadReq MSHR miss cycles
system.cpu7.dcache.demand_mshr_miss_latency::switch_cpus7.data     33754732                       # number of demand (read+write) MSHR miss cycles
system.cpu7.dcache.demand_mshr_miss_latency::total     33754732                       # number of demand (read+write) MSHR miss cycles
system.cpu7.dcache.overall_mshr_miss_latency::switch_cpus7.data     33754732                       # number of overall MSHR miss cycles
system.cpu7.dcache.overall_mshr_miss_latency::total     33754732                       # number of overall MSHR miss cycles
system.cpu7.dcache.ReadReq_mshr_miss_rate::switch_cpus7.data     0.004776                       # mshr miss rate for ReadReq accesses
system.cpu7.dcache.ReadReq_mshr_miss_rate::total     0.004776                       # mshr miss rate for ReadReq accesses
system.cpu7.dcache.demand_mshr_miss_rate::switch_cpus7.data     0.002624                       # mshr miss rate for demand accesses
system.cpu7.dcache.demand_mshr_miss_rate::total     0.002624                       # mshr miss rate for demand accesses
system.cpu7.dcache.overall_mshr_miss_rate::switch_cpus7.data     0.002624                       # mshr miss rate for overall accesses
system.cpu7.dcache.overall_mshr_miss_rate::total     0.002624                       # mshr miss rate for overall accesses
system.cpu7.dcache.ReadReq_avg_mshr_miss_latency::switch_cpus7.data 91229.005405                       # average ReadReq mshr miss latency
system.cpu7.dcache.ReadReq_avg_mshr_miss_latency::total 91229.005405                       # average ReadReq mshr miss latency
system.cpu7.dcache.demand_avg_mshr_miss_latency::switch_cpus7.data 91229.005405                       # average overall mshr miss latency
system.cpu7.dcache.demand_avg_mshr_miss_latency::total 91229.005405                       # average overall mshr miss latency
system.cpu7.dcache.overall_avg_mshr_miss_latency::switch_cpus7.data 91229.005405                       # average overall mshr miss latency
system.cpu7.dcache.overall_avg_mshr_miss_latency::total 91229.005405                       # average overall mshr miss latency
system.cpu7.dcache.no_allocate_misses               0                       # Number of misses that were no-allocate

---------- End Simulation Statistics   ----------
