
---------- Begin Simulation Statistics ----------
sim_seconds                                  0.108767                       # Number of seconds simulated
sim_ticks                                108767468169                       # Number of ticks simulated
final_tick                               621376671057                       # Number of ticks from beginning of simulation (restored from checkpoints and never reset)
sim_freq                                 1000000000000                       # Frequency of simulated ticks
host_inst_rate                                 301465                       # Simulator instruction rate (inst/s)
host_op_rate                                   383307                       # Simulator op (including micro ops) rate (op/s)
host_tick_rate                                1942386                       # Simulator tick rate (ticks/s)
host_mem_usage                               67752904                       # Number of bytes of host memory used
host_seconds                                 55996.82                       # Real time elapsed on the host
sim_insts                                 16881072306                       # Number of instructions simulated
sim_ops                                   21463974133                       # Number of ops (including micro ops) simulated
system.physmem.bytes_read::switch_cpus00.inst         5760                       # Number of bytes read from this memory
system.physmem.bytes_read::switch_cpus00.data      4293376                       # Number of bytes read from this memory
system.physmem.bytes_read::switch_cpus01.inst         4480                       # Number of bytes read from this memory
system.physmem.bytes_read::switch_cpus01.data      2274688                       # Number of bytes read from this memory
system.physmem.bytes_read::switch_cpus02.inst         5376                       # Number of bytes read from this memory
system.physmem.bytes_read::switch_cpus02.data      1481216                       # Number of bytes read from this memory
system.physmem.bytes_read::switch_cpus03.inst         5376                       # Number of bytes read from this memory
system.physmem.bytes_read::switch_cpus03.data      1479680                       # Number of bytes read from this memory
system.physmem.bytes_read::switch_cpus04.inst         4608                       # Number of bytes read from this memory
system.physmem.bytes_read::switch_cpus04.data      2283392                       # Number of bytes read from this memory
system.physmem.bytes_read::switch_cpus05.inst         4480                       # Number of bytes read from this memory
system.physmem.bytes_read::switch_cpus05.data      2275712                       # Number of bytes read from this memory
system.physmem.bytes_read::switch_cpus06.inst         5120                       # Number of bytes read from this memory
system.physmem.bytes_read::switch_cpus06.data      4304768                       # Number of bytes read from this memory
system.physmem.bytes_read::switch_cpus07.inst         5248                       # Number of bytes read from this memory
system.physmem.bytes_read::switch_cpus07.data      1483264                       # Number of bytes read from this memory
system.physmem.bytes_read::switch_cpus08.inst         4736                       # Number of bytes read from this memory
system.physmem.bytes_read::switch_cpus08.data      2282496                       # Number of bytes read from this memory
system.physmem.bytes_read::switch_cpus09.inst         4736                       # Number of bytes read from this memory
system.physmem.bytes_read::switch_cpus09.data      1077120                       # Number of bytes read from this memory
system.physmem.bytes_read::switch_cpus10.inst         5248                       # Number of bytes read from this memory
system.physmem.bytes_read::switch_cpus10.data      4310528                       # Number of bytes read from this memory
system.physmem.bytes_read::switch_cpus11.inst         5120                       # Number of bytes read from this memory
system.physmem.bytes_read::switch_cpus11.data      3676416                       # Number of bytes read from this memory
system.physmem.bytes_read::switch_cpus12.inst         4608                       # Number of bytes read from this memory
system.physmem.bytes_read::switch_cpus12.data      2269952                       # Number of bytes read from this memory
system.physmem.bytes_read::switch_cpus13.inst         5376                       # Number of bytes read from this memory
system.physmem.bytes_read::switch_cpus13.data      1482624                       # Number of bytes read from this memory
system.physmem.bytes_read::switch_cpus14.inst         5248                       # Number of bytes read from this memory
system.physmem.bytes_read::switch_cpus14.data      3670656                       # Number of bytes read from this memory
system.physmem.bytes_read::switch_cpus15.inst         4736                       # Number of bytes read from this memory
system.physmem.bytes_read::switch_cpus15.data      2283008                       # Number of bytes read from this memory
system.physmem.bytes_read::total             41009152                       # Number of bytes read from this memory
system.physmem.bytes_inst_read::switch_cpus00.inst         5760                       # Number of instructions bytes read from this memory
system.physmem.bytes_inst_read::switch_cpus01.inst         4480                       # Number of instructions bytes read from this memory
system.physmem.bytes_inst_read::switch_cpus02.inst         5376                       # Number of instructions bytes read from this memory
system.physmem.bytes_inst_read::switch_cpus03.inst         5376                       # Number of instructions bytes read from this memory
system.physmem.bytes_inst_read::switch_cpus04.inst         4608                       # Number of instructions bytes read from this memory
system.physmem.bytes_inst_read::switch_cpus05.inst         4480                       # Number of instructions bytes read from this memory
system.physmem.bytes_inst_read::switch_cpus06.inst         5120                       # Number of instructions bytes read from this memory
system.physmem.bytes_inst_read::switch_cpus07.inst         5248                       # Number of instructions bytes read from this memory
system.physmem.bytes_inst_read::switch_cpus08.inst         4736                       # Number of instructions bytes read from this memory
system.physmem.bytes_inst_read::switch_cpus09.inst         4736                       # Number of instructions bytes read from this memory
system.physmem.bytes_inst_read::switch_cpus10.inst         5248                       # Number of instructions bytes read from this memory
system.physmem.bytes_inst_read::switch_cpus11.inst         5120                       # Number of instructions bytes read from this memory
system.physmem.bytes_inst_read::switch_cpus12.inst         4608                       # Number of instructions bytes read from this memory
system.physmem.bytes_inst_read::switch_cpus13.inst         5376                       # Number of instructions bytes read from this memory
system.physmem.bytes_inst_read::switch_cpus14.inst         5248                       # Number of instructions bytes read from this memory
system.physmem.bytes_inst_read::switch_cpus15.inst         4736                       # Number of instructions bytes read from this memory
system.physmem.bytes_inst_read::total           80256                       # Number of instructions bytes read from this memory
system.physmem.bytes_written::writebacks     10947200                       # Number of bytes written to this memory
system.physmem.bytes_written::total          10947200                       # Number of bytes written to this memory
system.physmem.num_reads::switch_cpus00.inst           45                       # Number of read requests responded to by this memory
system.physmem.num_reads::switch_cpus00.data        33542                       # Number of read requests responded to by this memory
system.physmem.num_reads::switch_cpus01.inst           35                       # Number of read requests responded to by this memory
system.physmem.num_reads::switch_cpus01.data        17771                       # Number of read requests responded to by this memory
system.physmem.num_reads::switch_cpus02.inst           42                       # Number of read requests responded to by this memory
system.physmem.num_reads::switch_cpus02.data        11572                       # Number of read requests responded to by this memory
system.physmem.num_reads::switch_cpus03.inst           42                       # Number of read requests responded to by this memory
system.physmem.num_reads::switch_cpus03.data        11560                       # Number of read requests responded to by this memory
system.physmem.num_reads::switch_cpus04.inst           36                       # Number of read requests responded to by this memory
system.physmem.num_reads::switch_cpus04.data        17839                       # Number of read requests responded to by this memory
system.physmem.num_reads::switch_cpus05.inst           35                       # Number of read requests responded to by this memory
system.physmem.num_reads::switch_cpus05.data        17779                       # Number of read requests responded to by this memory
system.physmem.num_reads::switch_cpus06.inst           40                       # Number of read requests responded to by this memory
system.physmem.num_reads::switch_cpus06.data        33631                       # Number of read requests responded to by this memory
system.physmem.num_reads::switch_cpus07.inst           41                       # Number of read requests responded to by this memory
system.physmem.num_reads::switch_cpus07.data        11588                       # Number of read requests responded to by this memory
system.physmem.num_reads::switch_cpus08.inst           37                       # Number of read requests responded to by this memory
system.physmem.num_reads::switch_cpus08.data        17832                       # Number of read requests responded to by this memory
system.physmem.num_reads::switch_cpus09.inst           37                       # Number of read requests responded to by this memory
system.physmem.num_reads::switch_cpus09.data         8415                       # Number of read requests responded to by this memory
system.physmem.num_reads::switch_cpus10.inst           41                       # Number of read requests responded to by this memory
system.physmem.num_reads::switch_cpus10.data        33676                       # Number of read requests responded to by this memory
system.physmem.num_reads::switch_cpus11.inst           40                       # Number of read requests responded to by this memory
system.physmem.num_reads::switch_cpus11.data        28722                       # Number of read requests responded to by this memory
system.physmem.num_reads::switch_cpus12.inst           36                       # Number of read requests responded to by this memory
system.physmem.num_reads::switch_cpus12.data        17734                       # Number of read requests responded to by this memory
system.physmem.num_reads::switch_cpus13.inst           42                       # Number of read requests responded to by this memory
system.physmem.num_reads::switch_cpus13.data        11583                       # Number of read requests responded to by this memory
system.physmem.num_reads::switch_cpus14.inst           41                       # Number of read requests responded to by this memory
system.physmem.num_reads::switch_cpus14.data        28677                       # Number of read requests responded to by this memory
system.physmem.num_reads::switch_cpus15.inst           37                       # Number of read requests responded to by this memory
system.physmem.num_reads::switch_cpus15.data        17836                       # Number of read requests responded to by this memory
system.physmem.num_reads::total                320384                       # Number of read requests responded to by this memory
system.physmem.num_writes::writebacks           85525                       # Number of write requests responded to by this memory
system.physmem.num_writes::functional               0                       # Number of write requests responded to by this memory
system.physmem.num_writes::interrupt                0                       # Number of write requests responded to by this memory
system.physmem.num_writes::switch_cpus00.dtb.walker            0                       # Number of write requests responded to by this memory
system.physmem.num_writes::switch_cpus00.itb.walker            0                       # Number of write requests responded to by this memory
system.physmem.num_writes::switch_cpus00.inst            0                       # Number of write requests responded to by this memory
system.physmem.num_writes::switch_cpus00.data            0                       # Number of write requests responded to by this memory
system.physmem.num_writes::switch_cpus01.dtb.walker            0                       # Number of write requests responded to by this memory
system.physmem.num_writes::switch_cpus01.itb.walker            0                       # Number of write requests responded to by this memory
system.physmem.num_writes::switch_cpus01.inst            0                       # Number of write requests responded to by this memory
system.physmem.num_writes::switch_cpus01.data            0                       # Number of write requests responded to by this memory
system.physmem.num_writes::switch_cpus02.dtb.walker            0                       # Number of write requests responded to by this memory
system.physmem.num_writes::switch_cpus02.itb.walker            0                       # Number of write requests responded to by this memory
system.physmem.num_writes::switch_cpus02.inst            0                       # Number of write requests responded to by this memory
system.physmem.num_writes::switch_cpus02.data            0                       # Number of write requests responded to by this memory
system.physmem.num_writes::switch_cpus03.dtb.walker            0                       # Number of write requests responded to by this memory
system.physmem.num_writes::switch_cpus03.itb.walker            0                       # Number of write requests responded to by this memory
system.physmem.num_writes::switch_cpus03.inst            0                       # Number of write requests responded to by this memory
system.physmem.num_writes::switch_cpus03.data            0                       # Number of write requests responded to by this memory
system.physmem.num_writes::switch_cpus04.dtb.walker            0                       # Number of write requests responded to by this memory
system.physmem.num_writes::switch_cpus04.itb.walker            0                       # Number of write requests responded to by this memory
system.physmem.num_writes::switch_cpus04.inst            0                       # Number of write requests responded to by this memory
system.physmem.num_writes::switch_cpus04.data            0                       # Number of write requests responded to by this memory
system.physmem.num_writes::switch_cpus05.dtb.walker            0                       # Number of write requests responded to by this memory
system.physmem.num_writes::switch_cpus05.itb.walker            0                       # Number of write requests responded to by this memory
system.physmem.num_writes::switch_cpus05.inst            0                       # Number of write requests responded to by this memory
system.physmem.num_writes::switch_cpus05.data            0                       # Number of write requests responded to by this memory
system.physmem.num_writes::switch_cpus06.dtb.walker            0                       # Number of write requests responded to by this memory
system.physmem.num_writes::switch_cpus06.itb.walker            0                       # Number of write requests responded to by this memory
system.physmem.num_writes::switch_cpus06.inst            0                       # Number of write requests responded to by this memory
system.physmem.num_writes::switch_cpus06.data            0                       # Number of write requests responded to by this memory
system.physmem.num_writes::switch_cpus07.dtb.walker            0                       # Number of write requests responded to by this memory
system.physmem.num_writes::switch_cpus07.itb.walker            0                       # Number of write requests responded to by this memory
system.physmem.num_writes::switch_cpus07.inst            0                       # Number of write requests responded to by this memory
system.physmem.num_writes::switch_cpus07.data            0                       # Number of write requests responded to by this memory
system.physmem.num_writes::switch_cpus08.dtb.walker            0                       # Number of write requests responded to by this memory
system.physmem.num_writes::switch_cpus08.itb.walker            0                       # Number of write requests responded to by this memory
system.physmem.num_writes::switch_cpus08.inst            0                       # Number of write requests responded to by this memory
system.physmem.num_writes::switch_cpus08.data            0                       # Number of write requests responded to by this memory
system.physmem.num_writes::switch_cpus09.dtb.walker            0                       # Number of write requests responded to by this memory
system.physmem.num_writes::switch_cpus09.itb.walker            0                       # Number of write requests responded to by this memory
system.physmem.num_writes::switch_cpus09.inst            0                       # Number of write requests responded to by this memory
system.physmem.num_writes::switch_cpus09.data            0                       # Number of write requests responded to by this memory
system.physmem.num_writes::switch_cpus10.dtb.walker            0                       # Number of write requests responded to by this memory
system.physmem.num_writes::switch_cpus10.itb.walker            0                       # Number of write requests responded to by this memory
system.physmem.num_writes::switch_cpus10.inst            0                       # Number of write requests responded to by this memory
system.physmem.num_writes::switch_cpus10.data            0                       # Number of write requests responded to by this memory
system.physmem.num_writes::switch_cpus11.dtb.walker            0                       # Number of write requests responded to by this memory
system.physmem.num_writes::switch_cpus11.itb.walker            0                       # Number of write requests responded to by this memory
system.physmem.num_writes::switch_cpus11.inst            0                       # Number of write requests responded to by this memory
system.physmem.num_writes::switch_cpus11.data            0                       # Number of write requests responded to by this memory
system.physmem.num_writes::switch_cpus12.dtb.walker            0                       # Number of write requests responded to by this memory
system.physmem.num_writes::switch_cpus12.itb.walker            0                       # Number of write requests responded to by this memory
system.physmem.num_writes::switch_cpus12.inst            0                       # Number of write requests responded to by this memory
system.physmem.num_writes::switch_cpus12.data            0                       # Number of write requests responded to by this memory
system.physmem.num_writes::switch_cpus13.dtb.walker            0                       # Number of write requests responded to by this memory
system.physmem.num_writes::switch_cpus13.itb.walker            0                       # Number of write requests responded to by this memory
system.physmem.num_writes::switch_cpus13.inst            0                       # Number of write requests responded to by this memory
system.physmem.num_writes::switch_cpus13.data            0                       # Number of write requests responded to by this memory
system.physmem.num_writes::switch_cpus14.dtb.walker            0                       # Number of write requests responded to by this memory
system.physmem.num_writes::switch_cpus14.itb.walker            0                       # Number of write requests responded to by this memory
system.physmem.num_writes::switch_cpus14.inst            0                       # Number of write requests responded to by this memory
system.physmem.num_writes::switch_cpus14.data            0                       # Number of write requests responded to by this memory
system.physmem.num_writes::switch_cpus15.dtb.walker            0                       # Number of write requests responded to by this memory
system.physmem.num_writes::switch_cpus15.itb.walker            0                       # Number of write requests responded to by this memory
system.physmem.num_writes::switch_cpus15.inst            0                       # Number of write requests responded to by this memory
system.physmem.num_writes::switch_cpus15.data            0                       # Number of write requests responded to by this memory
system.physmem.num_writes::cpu00.dtb.walker            0                       # Number of write requests responded to by this memory
system.physmem.num_writes::cpu00.itb.walker            0                       # Number of write requests responded to by this memory
system.physmem.num_writes::cpu00.inst               0                       # Number of write requests responded to by this memory
system.physmem.num_writes::cpu00.data               0                       # Number of write requests responded to by this memory
system.physmem.num_writes::cpu01.dtb.walker            0                       # Number of write requests responded to by this memory
system.physmem.num_writes::cpu01.itb.walker            0                       # Number of write requests responded to by this memory
system.physmem.num_writes::cpu01.inst               0                       # Number of write requests responded to by this memory
system.physmem.num_writes::cpu01.data               0                       # Number of write requests responded to by this memory
system.physmem.num_writes::cpu02.dtb.walker            0                       # Number of write requests responded to by this memory
system.physmem.num_writes::cpu02.itb.walker            0                       # Number of write requests responded to by this memory
system.physmem.num_writes::cpu02.inst               0                       # Number of write requests responded to by this memory
system.physmem.num_writes::cpu02.data               0                       # Number of write requests responded to by this memory
system.physmem.num_writes::cpu03.dtb.walker            0                       # Number of write requests responded to by this memory
system.physmem.num_writes::cpu03.itb.walker            0                       # Number of write requests responded to by this memory
system.physmem.num_writes::cpu03.inst               0                       # Number of write requests responded to by this memory
system.physmem.num_writes::cpu03.data               0                       # Number of write requests responded to by this memory
system.physmem.num_writes::cpu04.dtb.walker            0                       # Number of write requests responded to by this memory
system.physmem.num_writes::cpu04.itb.walker            0                       # Number of write requests responded to by this memory
system.physmem.num_writes::cpu04.inst               0                       # Number of write requests responded to by this memory
system.physmem.num_writes::cpu04.data               0                       # Number of write requests responded to by this memory
system.physmem.num_writes::cpu05.dtb.walker            0                       # Number of write requests responded to by this memory
system.physmem.num_writes::cpu05.itb.walker            0                       # Number of write requests responded to by this memory
system.physmem.num_writes::cpu05.inst               0                       # Number of write requests responded to by this memory
system.physmem.num_writes::cpu05.data               0                       # Number of write requests responded to by this memory
system.physmem.num_writes::cpu06.dtb.walker            0                       # Number of write requests responded to by this memory
system.physmem.num_writes::cpu06.itb.walker            0                       # Number of write requests responded to by this memory
system.physmem.num_writes::cpu06.inst               0                       # Number of write requests responded to by this memory
system.physmem.num_writes::cpu06.data               0                       # Number of write requests responded to by this memory
system.physmem.num_writes::cpu07.dtb.walker            0                       # Number of write requests responded to by this memory
system.physmem.num_writes::cpu07.itb.walker            0                       # Number of write requests responded to by this memory
system.physmem.num_writes::cpu07.inst               0                       # Number of write requests responded to by this memory
system.physmem.num_writes::cpu07.data               0                       # Number of write requests responded to by this memory
system.physmem.num_writes::cpu08.dtb.walker            0                       # Number of write requests responded to by this memory
system.physmem.num_writes::cpu08.itb.walker            0                       # Number of write requests responded to by this memory
system.physmem.num_writes::cpu08.inst               0                       # Number of write requests responded to by this memory
system.physmem.num_writes::cpu08.data               0                       # Number of write requests responded to by this memory
system.physmem.num_writes::cpu09.dtb.walker            0                       # Number of write requests responded to by this memory
system.physmem.num_writes::cpu09.itb.walker            0                       # Number of write requests responded to by this memory
system.physmem.num_writes::cpu09.inst               0                       # Number of write requests responded to by this memory
system.physmem.num_writes::cpu09.data               0                       # Number of write requests responded to by this memory
system.physmem.num_writes::cpu10.dtb.walker            0                       # Number of write requests responded to by this memory
system.physmem.num_writes::cpu10.itb.walker            0                       # Number of write requests responded to by this memory
system.physmem.num_writes::cpu10.inst               0                       # Number of write requests responded to by this memory
system.physmem.num_writes::cpu10.data               0                       # Number of write requests responded to by this memory
system.physmem.num_writes::cpu11.dtb.walker            0                       # Number of write requests responded to by this memory
system.physmem.num_writes::cpu11.itb.walker            0                       # Number of write requests responded to by this memory
system.physmem.num_writes::cpu11.inst               0                       # Number of write requests responded to by this memory
system.physmem.num_writes::cpu11.data               0                       # Number of write requests responded to by this memory
system.physmem.num_writes::cpu12.dtb.walker            0                       # Number of write requests responded to by this memory
system.physmem.num_writes::cpu12.itb.walker            0                       # Number of write requests responded to by this memory
system.physmem.num_writes::cpu12.inst               0                       # Number of write requests responded to by this memory
system.physmem.num_writes::cpu12.data               0                       # Number of write requests responded to by this memory
system.physmem.num_writes::cpu13.dtb.walker            0                       # Number of write requests responded to by this memory
system.physmem.num_writes::cpu13.itb.walker            0                       # Number of write requests responded to by this memory
system.physmem.num_writes::cpu13.inst               0                       # Number of write requests responded to by this memory
system.physmem.num_writes::cpu13.data               0                       # Number of write requests responded to by this memory
system.physmem.num_writes::cpu14.dtb.walker            0                       # Number of write requests responded to by this memory
system.physmem.num_writes::cpu14.itb.walker            0                       # Number of write requests responded to by this memory
system.physmem.num_writes::cpu14.inst               0                       # Number of write requests responded to by this memory
system.physmem.num_writes::cpu14.data               0                       # Number of write requests responded to by this memory
system.physmem.num_writes::cpu15.dtb.walker            0                       # Number of write requests responded to by this memory
system.physmem.num_writes::cpu15.itb.walker            0                       # Number of write requests responded to by this memory
system.physmem.num_writes::cpu15.inst               0                       # Number of write requests responded to by this memory
system.physmem.num_writes::cpu15.data               0                       # Number of write requests responded to by this memory
system.physmem.num_writes::total                85525                       # Number of write requests responded to by this memory
system.physmem.bw_read::switch_cpus00.inst        52957                       # Total read bandwidth from this memory (bytes/s)
system.physmem.bw_read::switch_cpus00.data     39472979                       # Total read bandwidth from this memory (bytes/s)
system.physmem.bw_read::switch_cpus01.inst        41189                       # Total read bandwidth from this memory (bytes/s)
system.physmem.bw_read::switch_cpus01.data     20913312                       # Total read bandwidth from this memory (bytes/s)
system.physmem.bw_read::switch_cpus02.inst        49427                       # Total read bandwidth from this memory (bytes/s)
system.physmem.bw_read::switch_cpus02.data     13618190                       # Total read bandwidth from this memory (bytes/s)
system.physmem.bw_read::switch_cpus03.inst        49427                       # Total read bandwidth from this memory (bytes/s)
system.physmem.bw_read::switch_cpus03.data     13604068                       # Total read bandwidth from this memory (bytes/s)
system.physmem.bw_read::switch_cpus04.inst        42366                       # Total read bandwidth from this memory (bytes/s)
system.physmem.bw_read::switch_cpus04.data     20993336                       # Total read bandwidth from this memory (bytes/s)
system.physmem.bw_read::switch_cpus05.inst        41189                       # Total read bandwidth from this memory (bytes/s)
system.physmem.bw_read::switch_cpus05.data     20922727                       # Total read bandwidth from this memory (bytes/s)
system.physmem.bw_read::switch_cpus06.inst        47073                       # Total read bandwidth from this memory (bytes/s)
system.physmem.bw_read::switch_cpus06.data     39577716                       # Total read bandwidth from this memory (bytes/s)
system.physmem.bw_read::switch_cpus07.inst        48250                       # Total read bandwidth from this memory (bytes/s)
system.physmem.bw_read::switch_cpus07.data     13637019                       # Total read bandwidth from this memory (bytes/s)
system.physmem.bw_read::switch_cpus08.inst        43542                       # Total read bandwidth from this memory (bytes/s)
system.physmem.bw_read::switch_cpus08.data     20985098                       # Total read bandwidth from this memory (bytes/s)
system.physmem.bw_read::switch_cpus09.inst        43542                       # Total read bandwidth from this memory (bytes/s)
system.physmem.bw_read::switch_cpus09.data      9902961                       # Total read bandwidth from this memory (bytes/s)
system.physmem.bw_read::switch_cpus10.inst        48250                       # Total read bandwidth from this memory (bytes/s)
system.physmem.bw_read::switch_cpus10.data     39630673                       # Total read bandwidth from this memory (bytes/s)
system.physmem.bw_read::switch_cpus11.inst        47073                       # Total read bandwidth from this memory (bytes/s)
system.physmem.bw_read::switch_cpus11.data     33800695                       # Total read bandwidth from this memory (bytes/s)
system.physmem.bw_read::switch_cpus12.inst        42366                       # Total read bandwidth from this memory (bytes/s)
system.physmem.bw_read::switch_cpus12.data     20869770                       # Total read bandwidth from this memory (bytes/s)
system.physmem.bw_read::switch_cpus13.inst        49427                       # Total read bandwidth from this memory (bytes/s)
system.physmem.bw_read::switch_cpus13.data     13631135                       # Total read bandwidth from this memory (bytes/s)
system.physmem.bw_read::switch_cpus14.inst        48250                       # Total read bandwidth from this memory (bytes/s)
system.physmem.bw_read::switch_cpus14.data     33747738                       # Total read bandwidth from this memory (bytes/s)
system.physmem.bw_read::switch_cpus15.inst        43542                       # Total read bandwidth from this memory (bytes/s)
system.physmem.bw_read::switch_cpus15.data     20989805                       # Total read bandwidth from this memory (bytes/s)
system.physmem.bw_read::total               377035089                       # Total read bandwidth from this memory (bytes/s)
system.physmem.bw_inst_read::switch_cpus00.inst        52957                       # Instruction read bandwidth from this memory (bytes/s)
system.physmem.bw_inst_read::switch_cpus01.inst        41189                       # Instruction read bandwidth from this memory (bytes/s)
system.physmem.bw_inst_read::switch_cpus02.inst        49427                       # Instruction read bandwidth from this memory (bytes/s)
system.physmem.bw_inst_read::switch_cpus03.inst        49427                       # Instruction read bandwidth from this memory (bytes/s)
system.physmem.bw_inst_read::switch_cpus04.inst        42366                       # Instruction read bandwidth from this memory (bytes/s)
system.physmem.bw_inst_read::switch_cpus05.inst        41189                       # Instruction read bandwidth from this memory (bytes/s)
system.physmem.bw_inst_read::switch_cpus06.inst        47073                       # Instruction read bandwidth from this memory (bytes/s)
system.physmem.bw_inst_read::switch_cpus07.inst        48250                       # Instruction read bandwidth from this memory (bytes/s)
system.physmem.bw_inst_read::switch_cpus08.inst        43542                       # Instruction read bandwidth from this memory (bytes/s)
system.physmem.bw_inst_read::switch_cpus09.inst        43542                       # Instruction read bandwidth from this memory (bytes/s)
system.physmem.bw_inst_read::switch_cpus10.inst        48250                       # Instruction read bandwidth from this memory (bytes/s)
system.physmem.bw_inst_read::switch_cpus11.inst        47073                       # Instruction read bandwidth from this memory (bytes/s)
system.physmem.bw_inst_read::switch_cpus12.inst        42366                       # Instruction read bandwidth from this memory (bytes/s)
system.physmem.bw_inst_read::switch_cpus13.inst        49427                       # Instruction read bandwidth from this memory (bytes/s)
system.physmem.bw_inst_read::switch_cpus14.inst        48250                       # Instruction read bandwidth from this memory (bytes/s)
system.physmem.bw_inst_read::switch_cpus15.inst        43542                       # Instruction read bandwidth from this memory (bytes/s)
system.physmem.bw_inst_read::total             737868                       # Instruction read bandwidth from this memory (bytes/s)
system.physmem.bw_write::writebacks         100647741                       # Write bandwidth from this memory (bytes/s)
system.physmem.bw_write::total              100647741                       # Write bandwidth from this memory (bytes/s)
system.physmem.bw_total::writebacks         100647741                       # Total bandwidth to/from this memory (bytes/s)
system.physmem.bw_total::switch_cpus00.inst        52957                       # Total bandwidth to/from this memory (bytes/s)
system.physmem.bw_total::switch_cpus00.data     39472979                       # Total bandwidth to/from this memory (bytes/s)
system.physmem.bw_total::switch_cpus01.inst        41189                       # Total bandwidth to/from this memory (bytes/s)
system.physmem.bw_total::switch_cpus01.data     20913312                       # Total bandwidth to/from this memory (bytes/s)
system.physmem.bw_total::switch_cpus02.inst        49427                       # Total bandwidth to/from this memory (bytes/s)
system.physmem.bw_total::switch_cpus02.data     13618190                       # Total bandwidth to/from this memory (bytes/s)
system.physmem.bw_total::switch_cpus03.inst        49427                       # Total bandwidth to/from this memory (bytes/s)
system.physmem.bw_total::switch_cpus03.data     13604068                       # Total bandwidth to/from this memory (bytes/s)
system.physmem.bw_total::switch_cpus04.inst        42366                       # Total bandwidth to/from this memory (bytes/s)
system.physmem.bw_total::switch_cpus04.data     20993336                       # Total bandwidth to/from this memory (bytes/s)
system.physmem.bw_total::switch_cpus05.inst        41189                       # Total bandwidth to/from this memory (bytes/s)
system.physmem.bw_total::switch_cpus05.data     20922727                       # Total bandwidth to/from this memory (bytes/s)
system.physmem.bw_total::switch_cpus06.inst        47073                       # Total bandwidth to/from this memory (bytes/s)
system.physmem.bw_total::switch_cpus06.data     39577716                       # Total bandwidth to/from this memory (bytes/s)
system.physmem.bw_total::switch_cpus07.inst        48250                       # Total bandwidth to/from this memory (bytes/s)
system.physmem.bw_total::switch_cpus07.data     13637019                       # Total bandwidth to/from this memory (bytes/s)
system.physmem.bw_total::switch_cpus08.inst        43542                       # Total bandwidth to/from this memory (bytes/s)
system.physmem.bw_total::switch_cpus08.data     20985098                       # Total bandwidth to/from this memory (bytes/s)
system.physmem.bw_total::switch_cpus09.inst        43542                       # Total bandwidth to/from this memory (bytes/s)
system.physmem.bw_total::switch_cpus09.data      9902961                       # Total bandwidth to/from this memory (bytes/s)
system.physmem.bw_total::switch_cpus10.inst        48250                       # Total bandwidth to/from this memory (bytes/s)
system.physmem.bw_total::switch_cpus10.data     39630673                       # Total bandwidth to/from this memory (bytes/s)
system.physmem.bw_total::switch_cpus11.inst        47073                       # Total bandwidth to/from this memory (bytes/s)
system.physmem.bw_total::switch_cpus11.data     33800695                       # Total bandwidth to/from this memory (bytes/s)
system.physmem.bw_total::switch_cpus12.inst        42366                       # Total bandwidth to/from this memory (bytes/s)
system.physmem.bw_total::switch_cpus12.data     20869770                       # Total bandwidth to/from this memory (bytes/s)
system.physmem.bw_total::switch_cpus13.inst        49427                       # Total bandwidth to/from this memory (bytes/s)
system.physmem.bw_total::switch_cpus13.data     13631135                       # Total bandwidth to/from this memory (bytes/s)
system.physmem.bw_total::switch_cpus14.inst        48250                       # Total bandwidth to/from this memory (bytes/s)
system.physmem.bw_total::switch_cpus14.data     33747738                       # Total bandwidth to/from this memory (bytes/s)
system.physmem.bw_total::switch_cpus15.inst        43542                       # Total bandwidth to/from this memory (bytes/s)
system.physmem.bw_total::switch_cpus15.data     20989805                       # Total bandwidth to/from this memory (bytes/s)
system.physmem.bw_total::total              477682830                       # Total bandwidth to/from this memory (bytes/s)
system.switch_cpus00.dtb.inst_hits                  0                       # ITB inst hits
system.switch_cpus00.dtb.inst_misses                0                       # ITB inst misses
system.switch_cpus00.dtb.read_hits                  0                       # DTB read hits
system.switch_cpus00.dtb.read_misses                0                       # DTB read misses
system.switch_cpus00.dtb.write_hits                 0                       # DTB write hits
system.switch_cpus00.dtb.write_misses               0                       # DTB write misses
system.switch_cpus00.dtb.flush_tlb                  0                       # Number of times complete TLB was flushed
system.switch_cpus00.dtb.flush_tlb_mva              0                       # Number of times TLB was flushed by MVA
system.switch_cpus00.dtb.flush_tlb_mva_asid            0                       # Number of times TLB was flushed by MVA & ASID
system.switch_cpus00.dtb.flush_tlb_asid             0                       # Number of times TLB was flushed by ASID
system.switch_cpus00.dtb.flush_entries              0                       # Number of entries that have been flushed from TLB
system.switch_cpus00.dtb.align_faults               0                       # Number of TLB faults due to alignment restrictions
system.switch_cpus00.dtb.prefetch_faults            0                       # Number of TLB faults due to prefetch
system.switch_cpus00.dtb.domain_faults              0                       # Number of TLB faults due to domain restrictions
system.switch_cpus00.dtb.perms_faults               0                       # Number of TLB faults due to permissions restrictions
system.switch_cpus00.dtb.read_accesses              0                       # DTB read accesses
system.switch_cpus00.dtb.write_accesses             0                       # DTB write accesses
system.switch_cpus00.dtb.inst_accesses              0                       # ITB inst accesses
system.switch_cpus00.dtb.hits                       0                       # DTB hits
system.switch_cpus00.dtb.misses                     0                       # DTB misses
system.switch_cpus00.dtb.accesses                   0                       # DTB accesses
system.switch_cpus00.itb.inst_hits                  0                       # ITB inst hits
system.switch_cpus00.itb.inst_misses                0                       # ITB inst misses
system.switch_cpus00.itb.read_hits                  0                       # DTB read hits
system.switch_cpus00.itb.read_misses                0                       # DTB read misses
system.switch_cpus00.itb.write_hits                 0                       # DTB write hits
system.switch_cpus00.itb.write_misses               0                       # DTB write misses
system.switch_cpus00.itb.flush_tlb                  0                       # Number of times complete TLB was flushed
system.switch_cpus00.itb.flush_tlb_mva              0                       # Number of times TLB was flushed by MVA
system.switch_cpus00.itb.flush_tlb_mva_asid            0                       # Number of times TLB was flushed by MVA & ASID
system.switch_cpus00.itb.flush_tlb_asid             0                       # Number of times TLB was flushed by ASID
system.switch_cpus00.itb.flush_entries              0                       # Number of entries that have been flushed from TLB
system.switch_cpus00.itb.align_faults               0                       # Number of TLB faults due to alignment restrictions
system.switch_cpus00.itb.prefetch_faults            0                       # Number of TLB faults due to prefetch
system.switch_cpus00.itb.domain_faults              0                       # Number of TLB faults due to domain restrictions
system.switch_cpus00.itb.perms_faults               0                       # Number of TLB faults due to permissions restrictions
system.switch_cpus00.itb.read_accesses              0                       # DTB read accesses
system.switch_cpus00.itb.write_accesses             0                       # DTB write accesses
system.switch_cpus00.itb.inst_accesses              0                       # ITB inst accesses
system.switch_cpus00.itb.hits                       0                       # DTB hits
system.switch_cpus00.itb.misses                     0                       # DTB misses
system.switch_cpus00.itb.accesses                   0                       # DTB accesses
system.cpu00.workload.num_syscalls                 23                       # Number of system calls
system.switch_cpus00.numCycles              260833258                       # number of cpu cycles simulated
system.switch_cpus00.numWorkItemsStarted            0                       # number of work items this cpu started
system.switch_cpus00.numWorkItemsCompleted            0                       # number of work items this cpu completed
system.switch_cpus00.BPredUnit.lookups       17569212                       # Number of BP lookups
system.switch_cpus00.BPredUnit.condPredicted     15853613                       # Number of conditional branches predicted
system.switch_cpus00.BPredUnit.condIncorrect       924704                       # Number of conditional branches incorrect
system.switch_cpus00.BPredUnit.BTBLookups      6621864                       # Number of BTB lookups
system.switch_cpus00.BPredUnit.BTBHits        6295278                       # Number of BTB hits
system.switch_cpus00.BPredUnit.BTBCorrect            0                       # Number of correct BTB predictions (this stat may not work properly.
system.switch_cpus00.BPredUnit.usedRAS         971718                       # Number of times the RAS was used to get a target.
system.switch_cpus00.BPredUnit.RASInCorrect        41114                       # Number of incorrect RAS predictions.
system.switch_cpus00.fetch.icacheStallCycles    186572202                       # Number of cycles fetch is stalled on an Icache miss
system.switch_cpus00.fetch.Insts            110394567                       # Number of instructions fetch has processed
system.switch_cpus00.fetch.Branches          17569212                       # Number of branches that fetch encountered
system.switch_cpus00.fetch.predictedBranches      7266996                       # Number of branches that fetch has predicted taken
system.switch_cpus00.fetch.Cycles            21844787                       # Number of cycles fetch has run and was not squashing or blocked
system.switch_cpus00.fetch.SquashCycles       2901527                       # Number of cycles fetch has spent squashing
system.switch_cpus00.fetch.BlockedCycles     26049875                       # Number of cycles fetch has spent blocked
system.switch_cpus00.fetch.MiscStallCycles            1                       # Number of cycles fetch has spent waiting on interrupts, or bad addresses, or out of MSHRs
system.switch_cpus00.fetch.IcacheWaitRetryStallCycles           11                       # Number of stall cycles due to full MSHR
system.switch_cpus00.fetch.CacheLines        10705740                       # Number of cache lines fetched
system.switch_cpus00.fetch.IcacheSquashes       928125                       # Number of outstanding Icache misses that were squashed
system.switch_cpus00.fetch.rateDist::samples    236420507                       # Number of instructions fetched each cycle (Total)
system.switch_cpus00.fetch.rateDist::mean     0.547782                       # Number of instructions fetched each cycle (Total)
system.switch_cpus00.fetch.rateDist::stdev     1.847383                       # Number of instructions fetched each cycle (Total)
system.switch_cpus00.fetch.rateDist::underflows            0      0.00%      0.00% # Number of instructions fetched each cycle (Total)
system.switch_cpus00.fetch.rateDist::0      214575720     90.76%     90.76% # Number of instructions fetched each cycle (Total)
system.switch_cpus00.fetch.rateDist::1         780962      0.33%     91.09% # Number of instructions fetched each cycle (Total)
system.switch_cpus00.fetch.rateDist::2        1593974      0.67%     91.76% # Number of instructions fetched each cycle (Total)
system.switch_cpus00.fetch.rateDist::3         680089      0.29%     92.05% # Number of instructions fetched each cycle (Total)
system.switch_cpus00.fetch.rateDist::4        3630383      1.54%     93.59% # Number of instructions fetched each cycle (Total)
system.switch_cpus00.fetch.rateDist::5        3242677      1.37%     94.96% # Number of instructions fetched each cycle (Total)
system.switch_cpus00.fetch.rateDist::6         632542      0.27%     95.23% # Number of instructions fetched each cycle (Total)
system.switch_cpus00.fetch.rateDist::7        1305703      0.55%     95.78% # Number of instructions fetched each cycle (Total)
system.switch_cpus00.fetch.rateDist::8        9978457      4.22%    100.00% # Number of instructions fetched each cycle (Total)
system.switch_cpus00.fetch.rateDist::overflows            0      0.00%    100.00% # Number of instructions fetched each cycle (Total)
system.switch_cpus00.fetch.rateDist::min_value            0                       # Number of instructions fetched each cycle (Total)
system.switch_cpus00.fetch.rateDist::max_value            8                       # Number of instructions fetched each cycle (Total)
system.switch_cpus00.fetch.rateDist::total    236420507                       # Number of instructions fetched each cycle (Total)
system.switch_cpus00.fetch.branchRate        0.067358                       # Number of branch fetches per cycle
system.switch_cpus00.fetch.rate              0.423238                       # Number of inst fetches per cycle
system.switch_cpus00.decode.IdleCycles      184661274                       # Number of cycles decode is idle
system.switch_cpus00.decode.BlockedCycles     27972638                       # Number of cycles decode is blocked
system.switch_cpus00.decode.RunCycles        21764033                       # Number of cycles decode is running
system.switch_cpus00.decode.UnblockCycles        69409                       # Number of cycles decode is unblocking
system.switch_cpus00.decode.SquashCycles      1953147                       # Number of cycles decode is squashing
system.switch_cpus00.decode.BranchResolved      1541338                       # Number of times decode resolved a branch
system.switch_cpus00.decode.BranchMispred          485                       # Number of times decode detected a branch misprediction
system.switch_cpus00.decode.DecodedInsts    129444063                       # Number of instructions handled by decode
system.switch_cpus00.decode.SquashedInsts         2708                       # Number of squashed instructions handled by decode
system.switch_cpus00.rename.SquashCycles      1953147                       # Number of cycles rename is squashing
system.switch_cpus00.rename.IdleCycles      184906000                       # Number of cycles rename is idle
system.switch_cpus00.rename.BlockCycles      25996300                       # Number of cycles rename is blocking
system.switch_cpus00.rename.serializeStallCycles      1132997                       # count of cycles rename stalled for serializing inst
system.switch_cpus00.rename.RunCycles        21616381                       # Number of cycles rename is running
system.switch_cpus00.rename.UnblockCycles       815676                       # Number of cycles rename is unblocking
system.switch_cpus00.rename.RenamedInsts    129372458                       # Number of instructions processed by rename
system.switch_cpus00.rename.ROBFullEvents          581                       # Number of times rename has blocked due to ROB full
system.switch_cpus00.rename.IQFullEvents       415919                       # Number of times rename has blocked due to IQ full
system.switch_cpus00.rename.LSQFullEvents       266339                       # Number of times rename has blocked due to LSQ full
system.switch_cpus00.rename.FullRegisterEvents        12606                       # Number of times there has been no free registers
system.switch_cpus00.rename.RenamedOperands    151892408                       # Number of destination operands rename has renamed
system.switch_cpus00.rename.RenameLookups    609297250                       # Number of register rename lookups that rename has made
system.switch_cpus00.rename.int_rename_lookups    609297250                       # Number of integer rename lookups
system.switch_cpus00.rename.CommittedMaps    134722849                       # Number of HB maps that are committed
system.switch_cpus00.rename.UndoneMaps       17169548                       # Number of HB maps that are undone due to squashing
system.switch_cpus00.rename.serializingInsts        15408                       # count of serializing insts renamed
system.switch_cpus00.rename.tempSerializingInsts         7974                       # count of temporary serializing insts renamed
system.switch_cpus00.rename.skidInsts         1881144                       # count of insts added to the skid buffer
system.switch_cpus00.memDep0.insertedLoads     30539043                       # Number of loads inserted to the mem dependence unit.
system.switch_cpus00.memDep0.insertedStores     15443296                       # Number of stores inserted to the mem dependence unit.
system.switch_cpus00.memDep0.conflictingLoads       140566                       # Number of conflicting loads.
system.switch_cpus00.memDep0.conflictingStores       747211                       # Number of conflicting stores.
system.switch_cpus00.iq.iqInstsAdded        129127101                       # Number of instructions added to the IQ (excludes non-spec)
system.switch_cpus00.iq.iqNonSpecInstsAdded        15452                       # Number of non-speculative instructions added to the IQ
system.switch_cpus00.iq.iqInstsIssued       124152900                       # Number of instructions issued
system.switch_cpus00.iq.iqSquashedInstsIssued        71157                       # Number of squashed instructions issued
system.switch_cpus00.iq.iqSquashedInstsExamined      9945477                       # Number of squashed instructions iterated over during squash; mainly for profiling
system.switch_cpus00.iq.iqSquashedOperandsExamined     23782423                       # Number of squashed operands that are examined and possibly removed from graph
system.switch_cpus00.iq.iqSquashedNonSpecRemoved          472                       # Number of squashed non-spec instructions that were removed
system.switch_cpus00.iq.issued_per_cycle::samples    236420507                       # Number of insts issued each cycle
system.switch_cpus00.iq.issued_per_cycle::mean     0.525136                       # Number of insts issued each cycle
system.switch_cpus00.iq.issued_per_cycle::stdev     1.315665                       # Number of insts issued each cycle
system.switch_cpus00.iq.issued_per_cycle::underflows            0      0.00%      0.00% # Number of insts issued each cycle
system.switch_cpus00.iq.issued_per_cycle::0    191816346     81.13%     81.13% # Number of insts issued each cycle
system.switch_cpus00.iq.issued_per_cycle::1     13636824      5.77%     86.90% # Number of insts issued each cycle
system.switch_cpus00.iq.issued_per_cycle::2     11027325      4.66%     91.57% # Number of insts issued each cycle
system.switch_cpus00.iq.issued_per_cycle::3      4746913      2.01%     93.57% # Number of insts issued each cycle
system.switch_cpus00.iq.issued_per_cycle::4      5935996      2.51%     96.08% # Number of insts issued each cycle
system.switch_cpus00.iq.issued_per_cycle::5      5637750      2.38%     98.47% # Number of insts issued each cycle
system.switch_cpus00.iq.issued_per_cycle::6      3205859      1.36%     99.83% # Number of insts issued each cycle
system.switch_cpus00.iq.issued_per_cycle::7       255153      0.11%     99.93% # Number of insts issued each cycle
system.switch_cpus00.iq.issued_per_cycle::8       158341      0.07%    100.00% # Number of insts issued each cycle
system.switch_cpus00.iq.issued_per_cycle::overflows            0      0.00%    100.00% # Number of insts issued each cycle
system.switch_cpus00.iq.issued_per_cycle::min_value            0                       # Number of insts issued each cycle
system.switch_cpus00.iq.issued_per_cycle::max_value            8                       # Number of insts issued each cycle
system.switch_cpus00.iq.issued_per_cycle::total    236420507                       # Number of insts issued each cycle
system.switch_cpus00.iq.fu_full::No_OpClass            0      0.00%      0.00% # attempts to use FU when none available
system.switch_cpus00.iq.fu_full::IntAlu        312670     11.29%     11.29% # attempts to use FU when none available
system.switch_cpus00.iq.fu_full::IntMult            0      0.00%     11.29% # attempts to use FU when none available
system.switch_cpus00.iq.fu_full::IntDiv             0      0.00%     11.29% # attempts to use FU when none available
system.switch_cpus00.iq.fu_full::FloatAdd            0      0.00%     11.29% # attempts to use FU when none available
system.switch_cpus00.iq.fu_full::FloatCmp            0      0.00%     11.29% # attempts to use FU when none available
system.switch_cpus00.iq.fu_full::FloatCvt            0      0.00%     11.29% # attempts to use FU when none available
system.switch_cpus00.iq.fu_full::FloatMult            0      0.00%     11.29% # attempts to use FU when none available
system.switch_cpus00.iq.fu_full::FloatDiv            0      0.00%     11.29% # attempts to use FU when none available
system.switch_cpus00.iq.fu_full::FloatSqrt            0      0.00%     11.29% # attempts to use FU when none available
system.switch_cpus00.iq.fu_full::SimdAdd            0      0.00%     11.29% # attempts to use FU when none available
system.switch_cpus00.iq.fu_full::SimdAddAcc            0      0.00%     11.29% # attempts to use FU when none available
system.switch_cpus00.iq.fu_full::SimdAlu            0      0.00%     11.29% # attempts to use FU when none available
system.switch_cpus00.iq.fu_full::SimdCmp            0      0.00%     11.29% # attempts to use FU when none available
system.switch_cpus00.iq.fu_full::SimdCvt            0      0.00%     11.29% # attempts to use FU when none available
system.switch_cpus00.iq.fu_full::SimdMisc            0      0.00%     11.29% # attempts to use FU when none available
system.switch_cpus00.iq.fu_full::SimdMult            0      0.00%     11.29% # attempts to use FU when none available
system.switch_cpus00.iq.fu_full::SimdMultAcc            0      0.00%     11.29% # attempts to use FU when none available
system.switch_cpus00.iq.fu_full::SimdShift            0      0.00%     11.29% # attempts to use FU when none available
system.switch_cpus00.iq.fu_full::SimdShiftAcc            0      0.00%     11.29% # attempts to use FU when none available
system.switch_cpus00.iq.fu_full::SimdSqrt            0      0.00%     11.29% # attempts to use FU when none available
system.switch_cpus00.iq.fu_full::SimdFloatAdd            0      0.00%     11.29% # attempts to use FU when none available
system.switch_cpus00.iq.fu_full::SimdFloatAlu            0      0.00%     11.29% # attempts to use FU when none available
system.switch_cpus00.iq.fu_full::SimdFloatCmp            0      0.00%     11.29% # attempts to use FU when none available
system.switch_cpus00.iq.fu_full::SimdFloatCvt            0      0.00%     11.29% # attempts to use FU when none available
system.switch_cpus00.iq.fu_full::SimdFloatDiv            0      0.00%     11.29% # attempts to use FU when none available
system.switch_cpus00.iq.fu_full::SimdFloatMisc            0      0.00%     11.29% # attempts to use FU when none available
system.switch_cpus00.iq.fu_full::SimdFloatMult            0      0.00%     11.29% # attempts to use FU when none available
system.switch_cpus00.iq.fu_full::SimdFloatMultAcc            0      0.00%     11.29% # attempts to use FU when none available
system.switch_cpus00.iq.fu_full::SimdFloatSqrt            0      0.00%     11.29% # attempts to use FU when none available
system.switch_cpus00.iq.fu_full::MemRead      2387722     86.19%     97.48% # attempts to use FU when none available
system.switch_cpus00.iq.fu_full::MemWrite        69804      2.52%    100.00% # attempts to use FU when none available
system.switch_cpus00.iq.fu_full::IprAccess            0      0.00%    100.00% # attempts to use FU when none available
system.switch_cpus00.iq.fu_full::InstPrefetch            0      0.00%    100.00% # attempts to use FU when none available
system.switch_cpus00.iq.FU_type_0::No_OpClass            0      0.00%      0.00% # Type of FU issued
system.switch_cpus00.iq.FU_type_0::IntAlu     77884935     62.73%     62.73% # Type of FU issued
system.switch_cpus00.iq.FU_type_0::IntMult      1082122      0.87%     63.60% # Type of FU issued
system.switch_cpus00.iq.FU_type_0::IntDiv            0      0.00%     63.60% # Type of FU issued
system.switch_cpus00.iq.FU_type_0::FloatAdd            0      0.00%     63.60% # Type of FU issued
system.switch_cpus00.iq.FU_type_0::FloatCmp            0      0.00%     63.60% # Type of FU issued
system.switch_cpus00.iq.FU_type_0::FloatCvt            0      0.00%     63.60% # Type of FU issued
system.switch_cpus00.iq.FU_type_0::FloatMult            0      0.00%     63.60% # Type of FU issued
system.switch_cpus00.iq.FU_type_0::FloatDiv            0      0.00%     63.60% # Type of FU issued
system.switch_cpus00.iq.FU_type_0::FloatSqrt            0      0.00%     63.60% # Type of FU issued
system.switch_cpus00.iq.FU_type_0::SimdAdd            0      0.00%     63.60% # Type of FU issued
system.switch_cpus00.iq.FU_type_0::SimdAddAcc            0      0.00%     63.60% # Type of FU issued
system.switch_cpus00.iq.FU_type_0::SimdAlu            0      0.00%     63.60% # Type of FU issued
system.switch_cpus00.iq.FU_type_0::SimdCmp            0      0.00%     63.60% # Type of FU issued
system.switch_cpus00.iq.FU_type_0::SimdCvt            0      0.00%     63.60% # Type of FU issued
system.switch_cpus00.iq.FU_type_0::SimdMisc            0      0.00%     63.60% # Type of FU issued
system.switch_cpus00.iq.FU_type_0::SimdMult            0      0.00%     63.60% # Type of FU issued
system.switch_cpus00.iq.FU_type_0::SimdMultAcc            0      0.00%     63.60% # Type of FU issued
system.switch_cpus00.iq.FU_type_0::SimdShift            0      0.00%     63.60% # Type of FU issued
system.switch_cpus00.iq.FU_type_0::SimdShiftAcc            0      0.00%     63.60% # Type of FU issued
system.switch_cpus00.iq.FU_type_0::SimdSqrt            0      0.00%     63.60% # Type of FU issued
system.switch_cpus00.iq.FU_type_0::SimdFloatAdd            0      0.00%     63.60% # Type of FU issued
system.switch_cpus00.iq.FU_type_0::SimdFloatAlu            0      0.00%     63.60% # Type of FU issued
system.switch_cpus00.iq.FU_type_0::SimdFloatCmp            0      0.00%     63.60% # Type of FU issued
system.switch_cpus00.iq.FU_type_0::SimdFloatCvt            0      0.00%     63.60% # Type of FU issued
system.switch_cpus00.iq.FU_type_0::SimdFloatDiv            0      0.00%     63.60% # Type of FU issued
system.switch_cpus00.iq.FU_type_0::SimdFloatMisc         7432      0.01%     63.61% # Type of FU issued
system.switch_cpus00.iq.FU_type_0::SimdFloatMult            0      0.00%     63.61% # Type of FU issued
system.switch_cpus00.iq.FU_type_0::SimdFloatMultAcc            0      0.00%     63.61% # Type of FU issued
system.switch_cpus00.iq.FU_type_0::SimdFloatSqrt            0      0.00%     63.61% # Type of FU issued
system.switch_cpus00.iq.FU_type_0::MemRead     29773404     23.98%     87.59% # Type of FU issued
system.switch_cpus00.iq.FU_type_0::MemWrite     15405007     12.41%    100.00% # Type of FU issued
system.switch_cpus00.iq.FU_type_0::IprAccess            0      0.00%    100.00% # Type of FU issued
system.switch_cpus00.iq.FU_type_0::InstPrefetch            0      0.00%    100.00% # Type of FU issued
system.switch_cpus00.iq.FU_type_0::total    124152900                       # Type of FU issued
system.switch_cpus00.iq.rate                 0.475986                       # Inst issue rate
system.switch_cpus00.iq.fu_busy_cnt           2770196                       # FU busy when requested
system.switch_cpus00.iq.fu_busy_rate         0.022313                       # FU busy rate (busy events/executed inst)
system.switch_cpus00.iq.int_inst_queue_reads    487567660                       # Number of integer instruction queue reads
system.switch_cpus00.iq.int_inst_queue_writes    139091242                       # Number of integer instruction queue writes
system.switch_cpus00.iq.int_inst_queue_wakeup_accesses    123094419                       # Number of integer instruction queue wakeup accesses
system.switch_cpus00.iq.fp_inst_queue_reads            0                       # Number of floating instruction queue reads
system.switch_cpus00.iq.fp_inst_queue_writes            0                       # Number of floating instruction queue writes
system.switch_cpus00.iq.fp_inst_queue_wakeup_accesses            0                       # Number of floating instruction queue wakeup accesses
system.switch_cpus00.iq.int_alu_accesses    126923096                       # Number of integer alu accesses
system.switch_cpus00.iq.fp_alu_accesses             0                       # Number of floating point alu accesses
system.switch_cpus00.iew.lsq.thread0.forwLoads       224452                       # Number of loads that had data forwarded from stores
system.switch_cpus00.iew.lsq.thread0.invAddrLoads            0                       # Number of loads ignored due to an invalid address
system.switch_cpus00.iew.lsq.thread0.squashedLoads      1191006                       # Number of loads squashed
system.switch_cpus00.iew.lsq.thread0.ignoredResponses          473                       # Number of memory responses ignored because the instruction is squashed
system.switch_cpus00.iew.lsq.thread0.memOrderViolation         3216                       # Number of memory ordering violations
system.switch_cpus00.iew.lsq.thread0.squashedStores        97959                       # Number of stores squashed
system.switch_cpus00.iew.lsq.thread0.invAddrSwpfs            0                       # Number of software prefetches ignored due to an invalid address
system.switch_cpus00.iew.lsq.thread0.blockedLoads            0                       # Number of blocked loads due to partial load-store forwarding
system.switch_cpus00.iew.lsq.thread0.rescheduledLoads        10954                       # Number of loads that were rescheduled
system.switch_cpus00.iew.lsq.thread0.cacheBlocked            0                       # Number of times an access to memory failed due to the cache being blocked
system.switch_cpus00.iew.iewIdleCycles              0                       # Number of cycles IEW is idle
system.switch_cpus00.iew.iewSquashCycles      1953147                       # Number of cycles IEW is squashing
system.switch_cpus00.iew.iewBlockCycles      25363240                       # Number of cycles IEW is blocking
system.switch_cpus00.iew.iewUnblockCycles       240673                       # Number of cycles IEW is unblocking
system.switch_cpus00.iew.iewDispatchedInsts    129142638                       # Number of instructions dispatched to IQ
system.switch_cpus00.iew.iewDispSquashedInsts         1253                       # Number of squashed instructions skipped by dispatch
system.switch_cpus00.iew.iewDispLoadInsts     30539043                       # Number of dispatched load instructions
system.switch_cpus00.iew.iewDispStoreInsts     15443296                       # Number of dispatched store instructions
system.switch_cpus00.iew.iewDispNonSpecInsts         7973                       # Number of dispatched non-speculative instructions
system.switch_cpus00.iew.iewIQFullEvents       149070                       # Number of times the IQ has become full, causing a stall
system.switch_cpus00.iew.iewLSQFullEvents          129                       # Number of times the LSQ has become full, causing a stall
system.switch_cpus00.iew.memOrderViolationEvents         3216                       # Number of memory order violations
system.switch_cpus00.iew.predictedTakenIncorrect       541650                       # Number of branches that were predicted taken incorrectly
system.switch_cpus00.iew.predictedNotTakenIncorrect       541889                       # Number of branches that were predicted not taken incorrectly
system.switch_cpus00.iew.branchMispredicts      1083539                       # Number of branch mispredicts detected at execute
system.switch_cpus00.iew.iewExecutedInsts    123288745                       # Number of executed instructions
system.switch_cpus00.iew.iewExecLoadInsts     29677522                       # Number of load instructions executed
system.switch_cpus00.iew.iewExecSquashedInsts       864155                       # Number of squashed instructions skipped in execute
system.switch_cpus00.iew.exec_swp                   0                       # number of swp insts executed
system.switch_cpus00.iew.exec_nop                  85                       # number of nop insts executed
system.switch_cpus00.iew.exec_refs           45080730                       # number of memory reference insts executed
system.switch_cpus00.iew.exec_branches       16156073                       # Number of branches executed
system.switch_cpus00.iew.exec_stores         15403208                       # Number of stores executed
system.switch_cpus00.iew.exec_rate           0.472673                       # Inst execution rate
system.switch_cpus00.iew.wb_sent            123097599                       # cumulative count of insts sent to commit
system.switch_cpus00.iew.wb_count           123094419                       # cumulative count of insts written-back
system.switch_cpus00.iew.wb_producers        66503712                       # num instructions producing a value
system.switch_cpus00.iew.wb_consumers       131269407                       # num instructions consuming a value
system.switch_cpus00.iew.wb_penalized               0                       # number of instrctions required to write to 'other' IQ
system.switch_cpus00.iew.wb_rate             0.471928                       # insts written-back per cycle
system.switch_cpus00.iew.wb_fanout           0.506620                       # average fanout of values written-back
system.switch_cpus00.iew.wb_penalized_rate            0                       # fraction of instructions written-back that wrote to 'other' IQ
system.switch_cpus00.commit.commitCommittedInsts    100000001                       # The number of committed instructions
system.switch_cpus00.commit.commitCommittedOps    117516369                       # The number of committed instructions
system.switch_cpus00.commit.commitSquashedInsts     11640332                       # The number of squashed insts skipped by commit
system.switch_cpus00.commit.commitNonSpecStalls        14980                       # The number of times commit has been forced to stall to communicate backwards
system.switch_cpus00.commit.branchMispredicts       945086                       # The number of times a branch was mispredicted
system.switch_cpus00.commit.committed_per_cycle::samples    234467360                       # Number of insts commited each cycle
system.switch_cpus00.commit.committed_per_cycle::mean     0.501206                       # Number of insts commited each cycle
system.switch_cpus00.commit.committed_per_cycle::stdev     1.319669                       # Number of insts commited each cycle
system.switch_cpus00.commit.committed_per_cycle::underflows            0      0.00%      0.00% # Number of insts commited each cycle
system.switch_cpus00.commit.committed_per_cycle::0    191684214     81.75%     81.75% # Number of insts commited each cycle
system.switch_cpus00.commit.committed_per_cycle::1     15744483      6.71%     88.47% # Number of insts commited each cycle
system.switch_cpus00.commit.committed_per_cycle::2      7338228      3.13%     91.60% # Number of insts commited each cycle
system.switch_cpus00.commit.committed_per_cycle::3      7211727      3.08%     94.67% # Number of insts commited each cycle
system.switch_cpus00.commit.committed_per_cycle::4      1991395      0.85%     95.52% # Number of insts commited each cycle
system.switch_cpus00.commit.committed_per_cycle::5      8256707      3.52%     99.04% # Number of insts commited each cycle
system.switch_cpus00.commit.committed_per_cycle::6       627531      0.27%     99.31% # Number of insts commited each cycle
system.switch_cpus00.commit.committed_per_cycle::7       458652      0.20%     99.51% # Number of insts commited each cycle
system.switch_cpus00.commit.committed_per_cycle::8      1154423      0.49%    100.00% # Number of insts commited each cycle
system.switch_cpus00.commit.committed_per_cycle::overflows            0      0.00%    100.00% # Number of insts commited each cycle
system.switch_cpus00.commit.committed_per_cycle::min_value            0                       # Number of insts commited each cycle
system.switch_cpus00.commit.committed_per_cycle::max_value            8                       # Number of insts commited each cycle
system.switch_cpus00.commit.committed_per_cycle::total    234467360                       # Number of insts commited each cycle
system.switch_cpus00.commit.committedInsts    100000001                       # Number of instructions committed
system.switch_cpus00.commit.committedOps    117516369                       # Number of ops (including micro ops) committed
system.switch_cpus00.commit.swp_count               0                       # Number of s/w prefetches committed
system.switch_cpus00.commit.refs             44693366                       # Number of memory references committed
system.switch_cpus00.commit.loads            29348034                       # Number of loads committed
system.switch_cpus00.commit.membars              7478                       # Number of memory barriers committed
system.switch_cpus00.commit.branches         15518719                       # Number of branches committed
system.switch_cpus00.commit.fp_insts                0                       # Number of committed floating point instructions.
system.switch_cpus00.commit.int_insts       104500046                       # Number of committed integer instructions.
system.switch_cpus00.commit.function_calls      1138202                       # Number of function calls committed.
system.switch_cpus00.commit.bw_lim_events      1154423                       # number cycles where commit BW limit reached
system.switch_cpus00.commit.bw_limited              0                       # number of insts not committed due to BW limits
system.switch_cpus00.rob.rob_reads          362469339                       # The number of ROB reads
system.switch_cpus00.rob.rob_writes         260266742                       # The number of ROB writes
system.switch_cpus00.timesIdled               4011403                       # Number of times that the entire CPU went into an idle state and unscheduled itself
system.switch_cpus00.idleCycles              24412751                       # Total number of cycles that the CPU has spent unscheduled due to idling
system.switch_cpus00.committedInsts         100000001                       # Number of Instructions Simulated
system.switch_cpus00.committedOps           117516369                       # Number of Ops (including micro ops) Simulated
system.switch_cpus00.committedInsts_total    100000001                       # Number of Instructions Simulated
system.switch_cpus00.cpi                     2.608333                       # CPI: Cycles Per Instruction
system.switch_cpus00.cpi_total               2.608333                       # CPI: Total CPI of All Threads
system.switch_cpus00.ipc                     0.383387                       # IPC: Instructions Per Cycle
system.switch_cpus00.ipc_total               0.383387                       # IPC: Total IPC of All Threads
system.switch_cpus00.int_regfile_reads      609526678                       # number of integer regfile reads
system.switch_cpus00.int_regfile_writes     142952896                       # number of integer regfile writes
system.switch_cpus00.misc_regfile_reads     154148699                       # number of misc regfile reads
system.switch_cpus00.misc_regfile_writes        14958                       # number of misc regfile writes
system.switch_cpus01.dtb.inst_hits                  0                       # ITB inst hits
system.switch_cpus01.dtb.inst_misses                0                       # ITB inst misses
system.switch_cpus01.dtb.read_hits                  0                       # DTB read hits
system.switch_cpus01.dtb.read_misses                0                       # DTB read misses
system.switch_cpus01.dtb.write_hits                 0                       # DTB write hits
system.switch_cpus01.dtb.write_misses               0                       # DTB write misses
system.switch_cpus01.dtb.flush_tlb                  0                       # Number of times complete TLB was flushed
system.switch_cpus01.dtb.flush_tlb_mva              0                       # Number of times TLB was flushed by MVA
system.switch_cpus01.dtb.flush_tlb_mva_asid            0                       # Number of times TLB was flushed by MVA & ASID
system.switch_cpus01.dtb.flush_tlb_asid             0                       # Number of times TLB was flushed by ASID
system.switch_cpus01.dtb.flush_entries              0                       # Number of entries that have been flushed from TLB
system.switch_cpus01.dtb.align_faults               0                       # Number of TLB faults due to alignment restrictions
system.switch_cpus01.dtb.prefetch_faults            0                       # Number of TLB faults due to prefetch
system.switch_cpus01.dtb.domain_faults              0                       # Number of TLB faults due to domain restrictions
system.switch_cpus01.dtb.perms_faults               0                       # Number of TLB faults due to permissions restrictions
system.switch_cpus01.dtb.read_accesses              0                       # DTB read accesses
system.switch_cpus01.dtb.write_accesses             0                       # DTB write accesses
[...]
system.cpu15.icache.demand_avg_miss_latency::total 1803468.625000                       # average overall miss latency
system.cpu15.icache.overall_avg_miss_latency::switch_cpus15.inst 1803468.625000                       # average overall miss latency
system.cpu15.icache.overall_avg_miss_latency::total 1803468.625000                       # average overall miss latency
system.cpu15.icache.blocked_cycles::no_mshrs            0                       # number of cycles access was blocked
system.cpu15.icache.blocked_cycles::no_targets            0                       # number of cycles access was blocked
system.cpu15.icache.blocked::no_mshrs               0                       # number of cycles access was blocked
system.cpu15.icache.blocked::no_targets             0                       # number of cycles access was blocked
system.cpu15.icache.avg_blocked_cycles::no_mshrs          nan                       # average number of cycles each access was blocked
system.cpu15.icache.avg_blocked_cycles::no_targets          nan                       # average number of cycles each access was blocked
system.cpu15.icache.fast_writes                     0                       # number of fast writes performed
system.cpu15.icache.cache_copies                    0                       # number of cache copies performed
system.cpu15.icache.ReadReq_mshr_hits::switch_cpus15.inst           18                       # number of ReadReq MSHR hits
system.cpu15.icache.ReadReq_mshr_hits::total           18                       # number of ReadReq MSHR hits
system.cpu15.icache.demand_mshr_hits::switch_cpus15.inst           18                       # number of demand (read+write) MSHR hits
system.cpu15.icache.demand_mshr_hits::total           18                       # number of demand (read+write) MSHR hits
system.cpu15.icache.overall_mshr_hits::switch_cpus15.inst           18                       # number of overall MSHR hits
system.cpu15.icache.overall_mshr_hits::total           18                       # number of overall MSHR hits
system.cpu15.icache.ReadReq_mshr_misses::switch_cpus15.inst           38                       # number of ReadReq MSHR misses
system.cpu15.icache.ReadReq_mshr_misses::total           38                       # number of ReadReq MSHR misses
system.cpu15.icache.demand_mshr_misses::switch_cpus15.inst           38                       # number of demand (read+write) MSHR misses
system.cpu15.icache.demand_mshr_misses::total           38                       # number of demand (read+write) MSHR misses
system.cpu15.icache.overall_mshr_misses::switch_cpus15.inst           38                       # number of overall MSHR misses
system.cpu15.icache.overall_mshr_misses::total           38                       # number of overall MSHR misses
system.cpu15.icache.ReadReq_mshr_miss_latency::switch_cpus15.inst     68047319                       # number of ReadReq MSHR miss cycles
system.cpu15.icache.ReadReq_mshr_miss_latency::total     68047319                       # number of ReadReq MSHR miss cycles
system.cpu15.icache.demand_mshr_miss_latency::switch_cpus15.inst     68047319                       # number of demand (read+write) MSHR miss cycles
system.cpu15.icache.demand_mshr_miss_latency::total     68047319                       # number of demand (read+write) MSHR miss cycles
system.cpu15.icache.overall_mshr_miss_latency::switch_cpus15.inst     68047319                       # number of overall MSHR miss cycles
system.cpu15.icache.overall_mshr_miss_latency::total     68047319                       # number of overall MSHR miss cycles
system.cpu15.icache.ReadReq_mshr_miss_rate::switch_cpus15.inst     0.000003                       # mshr miss rate for ReadReq accesses
system.cpu15.icache.ReadReq_mshr_miss_rate::total     0.000003                       # mshr miss rate for ReadReq accesses
system.cpu15.icache.demand_mshr_miss_rate::switch_cpus15.inst     0.000003                       # mshr miss rate for demand accesses
system.cpu15.icache.demand_mshr_miss_rate::total     0.000003                       # mshr miss rate for demand accesses
system.cpu15.icache.overall_mshr_miss_rate::switch_cpus15.inst     0.000003                       # mshr miss rate for overall accesses
system.cpu15.icache.overall_mshr_miss_rate::total     0.000003                       # mshr miss rate for overall accesses
system.cpu15.icache.ReadReq_avg_mshr_miss_latency::switch_cpus15.inst 1790718.921053                       # average ReadReq mshr miss latency
system.cpu15.icache.ReadReq_avg_mshr_miss_latency::total 1790718.921053                       # average ReadReq mshr miss latency
system.cpu15.icache.demand_avg_mshr_miss_latency::switch_cpus15.inst 1790718.921053                       # average overall mshr miss latency
system.cpu15.icache.demand_avg_mshr_miss_latency::total 1790718.921053                       # average overall mshr miss latency
system.cpu15.icache.overall_avg_mshr_miss_latency::switch_cpus15.inst 1790718.921053                       # average overall mshr miss latency
system.cpu15.icache.overall_avg_mshr_miss_latency::total 1790718.921053                       # average overall mshr miss latency
system.cpu15.icache.no_allocate_misses              0                       # Number of misses that were no-allocate
system.cpu15.dcache.replacements                51672                       # number of replacements
system.cpu15.dcache.tagsinuse                     256                       # Cycle average of tags in use
system.cpu15.dcache.total_refs              167126617                       # Total number of references to valid blocks.
system.cpu15.dcache.sampled_refs                51928                       # Sample count of references to valid blocks.
system.cpu15.dcache.avg_refs              3218.429691                       # Average number of references to valid blocks.
system.cpu15.dcache.warmup_cycle                    0                       # Cycle when the warmup percentage was hit.
system.cpu15.dcache.occ_blocks::switch_cpus15.data   234.195619                       # Average occupied blocks per requestor
system.cpu15.dcache.occ_blocks::cpu15.data    21.804381                       # Average occupied blocks per requestor
system.cpu15.dcache.occ_percent::switch_cpus15.data     0.914827                       # Average percentage of cache occupancy
system.cpu15.dcache.occ_percent::cpu15.data     0.085173                       # Average percentage of cache occupancy
system.cpu15.dcache.occ_percent::total              1                       # Average percentage of cache occupancy
system.cpu15.dcache.ReadReq_hits::switch_cpus15.data      7963690                       # number of ReadReq hits
system.cpu15.dcache.ReadReq_hits::total       7963690                       # number of ReadReq hits
system.cpu15.dcache.WriteReq_hits::switch_cpus15.data      6735060                       # number of WriteReq hits
system.cpu15.dcache.WriteReq_hits::total      6735060                       # number of WriteReq hits
system.cpu15.dcache.LoadLockedReq_hits::switch_cpus15.data        16472                       # number of LoadLockedReq hits
system.cpu15.dcache.LoadLockedReq_hits::total        16472                       # number of LoadLockedReq hits
system.cpu15.dcache.StoreCondReq_hits::switch_cpus15.data        15501                       # number of StoreCondReq hits
system.cpu15.dcache.StoreCondReq_hits::total        15501                       # number of StoreCondReq hits
system.cpu15.dcache.demand_hits::switch_cpus15.data     14698750                       # number of demand (read+write) hits
system.cpu15.dcache.demand_hits::total       14698750                       # number of demand (read+write) hits
system.cpu15.dcache.overall_hits::switch_cpus15.data     14698750                       # number of overall hits
system.cpu15.dcache.overall_hits::total      14698750                       # number of overall hits
system.cpu15.dcache.ReadReq_misses::switch_cpus15.data       176571                       # number of ReadReq misses
system.cpu15.dcache.ReadReq_misses::total       176571                       # number of ReadReq misses
system.cpu15.dcache.WriteReq_misses::switch_cpus15.data         5522                       # number of WriteReq misses
system.cpu15.dcache.WriteReq_misses::total         5522                       # number of WriteReq misses
system.cpu15.dcache.demand_misses::switch_cpus15.data       182093                       # number of demand (read+write) misses
system.cpu15.dcache.demand_misses::total       182093                       # number of demand (read+write) misses
system.cpu15.dcache.overall_misses::switch_cpus15.data       182093                       # number of overall misses
system.cpu15.dcache.overall_misses::total       182093                       # number of overall misses
system.cpu15.dcache.ReadReq_miss_latency::switch_cpus15.data  73774517886                       # number of ReadReq miss cycles
system.cpu15.dcache.ReadReq_miss_latency::total  73774517886                       # number of ReadReq miss cycles
system.cpu15.dcache.WriteReq_miss_latency::switch_cpus15.data   3335401849                       # number of WriteReq miss cycles
system.cpu15.dcache.WriteReq_miss_latency::total   3335401849                       # number of WriteReq miss cycles
system.cpu15.dcache.demand_miss_latency::switch_cpus15.data  77109919735                       # number of demand (read+write) miss cycles
system.cpu15.dcache.demand_miss_latency::total  77109919735                       # number of demand (read+write) miss cycles
system.cpu15.dcache.overall_miss_latency::switch_cpus15.data  77109919735                       # number of overall miss cycles
system.cpu15.dcache.overall_miss_latency::total  77109919735                       # number of overall miss cycles
system.cpu15.dcache.ReadReq_accesses::switch_cpus15.data      8140261                       # number of ReadReq accesses(hits+misses)
system.cpu15.dcache.ReadReq_accesses::total      8140261                       # number of ReadReq accesses(hits+misses)
system.cpu15.dcache.WriteReq_accesses::switch_cpus15.data      6740582                       # number of WriteReq accesses(hits+misses)
system.cpu15.dcache.WriteReq_accesses::total      6740582                       # number of WriteReq accesses(hits+misses)
system.cpu15.dcache.LoadLockedReq_accesses::switch_cpus15.data        16472                       # number of LoadLockedReq accesses(hits+misses)
system.cpu15.dcache.LoadLockedReq_accesses::total        16472                       # number of LoadLockedReq accesses(hits+misses)
system.cpu15.dcache.StoreCondReq_accesses::switch_cpus15.data        15501                       # number of StoreCondReq accesses(hits+misses)
system.cpu15.dcache.StoreCondReq_accesses::total        15501                       # number of StoreCondReq accesses(hits+misses)
system.cpu15.dcache.demand_accesses::switch_cpus15.data     14880843                       # number of demand (read+write) accesses
system.cpu15.dcache.demand_accesses::total     14880843                       # number of demand (read+write) accesses
system.cpu15.dcache.overall_accesses::switch_cpus15.data     14880843                       # number of overall (read+write) accesses
system.cpu15.dcache.overall_accesses::total     14880843                       # number of overall (read+write) accesses
system.cpu15.dcache.ReadReq_miss_rate::switch_cpus15.data     0.021691                       # miss rate for ReadReq accesses
system.cpu15.dcache.ReadReq_miss_rate::total     0.021691                       # miss rate for ReadReq accesses
system.cpu15.dcache.WriteReq_miss_rate::switch_cpus15.data     0.000819                       # miss rate for WriteReq accesses
system.cpu15.dcache.WriteReq_miss_rate::total     0.000819                       # miss rate for WriteReq accesses
system.cpu15.dcache.demand_miss_rate::switch_cpus15.data     0.012237                       # miss rate for demand accesses
system.cpu15.dcache.demand_miss_rate::total     0.012237                       # miss rate for demand accesses
system.cpu15.dcache.overall_miss_rate::switch_cpus15.data     0.012237                       # miss rate for overall accesses
system.cpu15.dcache.overall_miss_rate::total     0.012237                       # miss rate for overall accesses
system.cpu15.dcache.ReadReq_avg_miss_latency::switch_cpus15.data 417817.862990                       # average ReadReq miss latency
system.cpu15.dcache.ReadReq_avg_miss_latency::total 417817.862990                       # average ReadReq miss latency
system.cpu15.dcache.WriteReq_avg_miss_latency::switch_cpus15.data 604020.617349                       # average WriteReq miss latency
system.cpu15.dcache.WriteReq_avg_miss_latency::total 604020.617349                       # average WriteReq miss latency
system.cpu15.dcache.demand_avg_miss_latency::switch_cpus15.data 423464.491963                       # average overall miss latency
system.cpu15.dcache.demand_avg_miss_latency::total 423464.491963                       # average overall miss latency
system.cpu15.dcache.overall_avg_miss_latency::switch_cpus15.data 423464.491963                       # average overall miss latency
system.cpu15.dcache.overall_avg_miss_latency::total 423464.491963                       # average overall miss latency
system.cpu15.dcache.blocked_cycles::no_mshrs            0                       # number of cycles access was blocked
system.cpu15.dcache.blocked_cycles::no_targets     32435286                       # number of cycles access was blocked
system.cpu15.dcache.blocked::no_mshrs               0                       # number of cycles access was blocked
system.cpu15.dcache.blocked::no_targets            86                       # number of cycles access was blocked
system.cpu15.dcache.avg_blocked_cycles::no_mshrs          nan                       # average number of cycles each access was blocked
system.cpu15.dcache.avg_blocked_cycles::no_targets 377154.488372                       # average number of cycles each access was blocked
system.cpu15.dcache.fast_writes                     0                       # number of fast writes performed
system.cpu15.dcache.cache_copies                    0                       # number of cache copies performed
system.cpu15.dcache.writebacks::writebacks        18414                       # number of writebacks
system.cpu15.dcache.writebacks::total           18414                       # number of writebacks
system.cpu15.dcache.ReadReq_mshr_hits::switch_cpus15.data       125052                       # number of ReadReq MSHR hits
system.cpu15.dcache.ReadReq_mshr_hits::total       125052                       # number of ReadReq MSHR hits
system.cpu15.dcache.WriteReq_mshr_hits::switch_cpus15.data         5369                       # number of WriteReq MSHR hits
system.cpu15.dcache.WriteReq_mshr_hits::total         5369                       # number of WriteReq MSHR hits
system.cpu15.dcache.demand_mshr_hits::switch_cpus15.data       130421                       # number of demand (read+write) MSHR hits
system.cpu15.dcache.demand_mshr_hits::total       130421                       # number of demand (read+write) MSHR hits
system.cpu15.dcache.overall_mshr_hits::switch_cpus15.data       130421                       # number of overall MSHR hits
system.cpu15.dcache.overall_mshr_hits::total       130421                       # number of overall MSHR hits
system.cpu15.dcache.ReadReq_mshr_misses::switch_cpus15.data        51519                       # number of ReadReq MSHR misses
system.cpu15.dcache.ReadReq_mshr_misses::total        51519                       # number of ReadReq MSHR misses
system.cpu15.dcache.WriteReq_mshr_misses::switch_cpus15.data          153                       # number of WriteReq MSHR misses
system.cpu15.dcache.WriteReq_mshr_misses::total          153                       # number of WriteReq MSHR misses
system.cpu15.dcache.demand_mshr_misses::switch_cpus15.data        51672                       # number of demand (read+write) MSHR misses
system.cpu15.dcache.demand_mshr_misses::total        51672                       # number of demand (read+write) MSHR misses
system.cpu15.dcache.overall_mshr_misses::switch_cpus15.data        51672                       # number of overall MSHR misses
system.cpu15.dcache.overall_mshr_misses::total        51672                       # number of overall MSHR misses
system.cpu15.dcache.ReadReq_mshr_miss_latency::switch_cpus15.data  17357024034                       # number of ReadReq MSHR miss cycles
system.cpu15.dcache.ReadReq_mshr_miss_latency::total  17357024034                       # number of ReadReq MSHR miss cycles
system.cpu15.dcache.WriteReq_mshr_miss_latency::switch_cpus15.data     15879158                       # number of WriteReq MSHR miss cycles
system.cpu15.dcache.WriteReq_mshr_miss_latency::total     15879158                       # number of WriteReq MSHR miss cycles
system.cpu15.dcache.demand_mshr_miss_latency::switch_cpus15.data  17372903192                       # number of demand (read+write) MSHR miss cycles
system.cpu15.dcache.demand_mshr_miss_latency::total  17372903192                       # number of demand (read+write) MSHR miss cycles
system.cpu15.dcache.overall_mshr_miss_latency::switch_cpus15.data  17372903192                       # number of overall MSHR miss cycles
system.cpu15.dcache.overall_mshr_miss_latency::total  17372903192                       # number of overall MSHR miss cycles
system.cpu15.dcache.ReadReq_mshr_miss_rate::switch_cpus15.data     0.006329                       # mshr miss rate for ReadReq accesses
system.cpu15.dcache.ReadReq_mshr_miss_rate::total     0.006329                       # mshr miss rate for ReadReq accesses
system.cpu15.dcache.WriteReq_mshr_miss_rate::switch_cpus15.data     0.000023                       # mshr miss rate for WriteReq accesses
system.cpu15.dcache.WriteReq_mshr_miss_rate::total     0.000023                       # mshr miss rate for WriteReq accesses
system.cpu15.dcache.demand_mshr_miss_rate::switch_cpus15.data     0.003472                       # mshr miss rate for demand accesses
system.cpu15.dcache.demand_mshr_miss_rate::total     0.003472                       # mshr miss rate for demand accesses
system.cpu15.dcache.overall_mshr_miss_rate::switch_cpus15.data     0.003472                       # mshr miss rate for overall accesses
system.cpu15.dcache.overall_mshr_miss_rate::total     0.003472                       # mshr miss rate for overall accesses
system.cpu15.dcache.ReadReq_avg_mshr_miss_latency::switch_cpus15.data 336905.297735                       # average ReadReq mshr miss latency
system.cpu15.dcache.ReadReq_avg_mshr_miss_latency::total 336905.297735                       # average ReadReq mshr miss latency
system.cpu15.dcache.WriteReq_avg_mshr_miss_latency::switch_cpus15.data 103785.346405                       # average WriteReq mshr miss latency
system.cpu15.dcache.WriteReq_avg_mshr_miss_latency::total 103785.346405                       # average WriteReq mshr miss latency
system.cpu15.dcache.demand_avg_mshr_miss_latency::switch_cpus15.data 336215.033132                       # average overall mshr miss latency
system.cpu15.dcache.demand_avg_mshr_miss_latency::total 336215.033132                       # average overall mshr miss latency
system.cpu15.dcache.overall_avg_mshr_miss_latency::switch_cpus15.data 336215.033132                       # average overall mshr miss latency
system.cpu15.dcache.overall_avg_mshr_miss_latency::total 336215.033132                       # average overall mshr miss latency
system.cpu15.dcache.no_allocate_misses              0                       # Number of misses that were no-allocate

---------- End Simulation Statistics   ----------
