
---------- Begin Simulation Statistics ----------
sim_seconds                                  0.013200                       # Number of seconds simulated
sim_ticks                                 13200445248                       # Number of ticks simulated
final_tick                               578498877075                       # Number of ticks from beginning of simulation (restored from checkpoints and never reset)
sim_freq                                 1000000000000                       # Frequency of simulated ticks
host_inst_rate                                 381391                       # Simulator instruction rate (inst/s)
host_op_rate                                   490492                       # Simulator op (including micro ops) rate (op/s)
host_tick_rate                                 295620                       # Simulator tick rate (ticks/s)
host_mem_usage                               67769468                       # Number of bytes of host memory used
host_seconds                                 44653.35                       # Real time elapsed on the host
sim_insts                                 17030402731                       # Number of instructions simulated
sim_ops                                   21902113722                       # Number of ops (including micro ops) simulated
system.physmem.bytes_read::switch_cpus00.inst         3840                       # Number of bytes read from this memory
system.physmem.bytes_read::switch_cpus00.data       255488                       # Number of bytes read from this memory
system.physmem.bytes_read::switch_cpus01.inst         5120                       # Number of bytes read from this memory
system.physmem.bytes_read::switch_cpus01.data       176512                       # Number of bytes read from this memory
system.physmem.bytes_read::switch_cpus02.inst         3968                       # Number of bytes read from this memory
system.physmem.bytes_read::switch_cpus02.data       254720                       # Number of bytes read from this memory
system.physmem.bytes_read::switch_cpus03.inst         4096                       # Number of bytes read from this memory
system.physmem.bytes_read::switch_cpus03.data       519168                       # Number of bytes read from this memory
system.physmem.bytes_read::switch_cpus04.inst         4608                       # Number of bytes read from this memory
system.physmem.bytes_read::switch_cpus04.data       137472                       # Number of bytes read from this memory
system.physmem.bytes_read::switch_cpus05.inst         4352                       # Number of bytes read from this memory
system.physmem.bytes_read::switch_cpus05.data       255232                       # Number of bytes read from this memory
system.physmem.bytes_read::switch_cpus06.inst         4352                       # Number of bytes read from this memory
system.physmem.bytes_read::switch_cpus06.data       446464                       # Number of bytes read from this memory
system.physmem.bytes_read::switch_cpus07.inst         4352                       # Number of bytes read from this memory
system.physmem.bytes_read::switch_cpus07.data       516608                       # Number of bytes read from this memory
system.physmem.bytes_read::switch_cpus08.inst         4608                       # Number of bytes read from this memory
system.physmem.bytes_read::switch_cpus08.data       137472                       # Number of bytes read from this memory
system.physmem.bytes_read::switch_cpus09.inst         4096                       # Number of bytes read from this memory
system.physmem.bytes_read::switch_cpus09.data       254848                       # Number of bytes read from this memory
system.physmem.bytes_read::switch_cpus10.inst         4224                       # Number of bytes read from this memory
system.physmem.bytes_read::switch_cpus10.data       254848                       # Number of bytes read from this memory
system.physmem.bytes_read::switch_cpus11.inst         4352                       # Number of bytes read from this memory
system.physmem.bytes_read::switch_cpus11.data       517504                       # Number of bytes read from this memory
system.physmem.bytes_read::switch_cpus12.inst         3712                       # Number of bytes read from this memory
system.physmem.bytes_read::switch_cpus12.data       255104                       # Number of bytes read from this memory
system.physmem.bytes_read::switch_cpus13.inst         5504                       # Number of bytes read from this memory
system.physmem.bytes_read::switch_cpus13.data       176000                       # Number of bytes read from this memory
system.physmem.bytes_read::switch_cpus14.inst         4608                       # Number of bytes read from this memory
system.physmem.bytes_read::switch_cpus14.data       137472                       # Number of bytes read from this memory
system.physmem.bytes_read::switch_cpus15.inst         4992                       # Number of bytes read from this memory
system.physmem.bytes_read::switch_cpus15.data       259328                       # Number of bytes read from this memory
system.physmem.bytes_read::total              4625024                       # Number of bytes read from this memory
system.physmem.bytes_inst_read::switch_cpus00.inst         3840                       # Number of instructions bytes read from this memory
system.physmem.bytes_inst_read::switch_cpus01.inst         5120                       # Number of instructions bytes read from this memory
system.physmem.bytes_inst_read::switch_cpus02.inst         3968                       # Number of instructions bytes read from this memory
system.physmem.bytes_inst_read::switch_cpus03.inst         4096                       # Number of instructions bytes read from this memory
system.physmem.bytes_inst_read::switch_cpus04.inst         4608                       # Number of instructions bytes read from this memory
system.physmem.bytes_inst_read::switch_cpus05.inst         4352                       # Number of instructions bytes read from this memory
system.physmem.bytes_inst_read::switch_cpus06.inst         4352                       # Number of instructions bytes read from this memory
system.physmem.bytes_inst_read::switch_cpus07.inst         4352                       # Number of instructions bytes read from this memory
system.physmem.bytes_inst_read::switch_cpus08.inst         4608                       # Number of instructions bytes read from this memory
system.physmem.bytes_inst_read::switch_cpus09.inst         4096                       # Number of instructions bytes read from this memory
system.physmem.bytes_inst_read::switch_cpus10.inst         4224                       # Number of instructions bytes read from this memory
system.physmem.bytes_inst_read::switch_cpus11.inst         4352                       # Number of instructions bytes read from this memory
system.physmem.bytes_inst_read::switch_cpus12.inst         3712                       # Number of instructions bytes read from this memory
system.physmem.bytes_inst_read::switch_cpus13.inst         5504                       # Number of instructions bytes read from this memory
system.physmem.bytes_inst_read::switch_cpus14.inst         4608                       # Number of instructions bytes read from this memory
system.physmem.bytes_inst_read::switch_cpus15.inst         4992                       # Number of instructions bytes read from this memory
system.physmem.bytes_inst_read::total           70784                       # Number of instructions bytes read from this memory
system.physmem.bytes_written::writebacks      1081984                       # Number of bytes written to this memory
system.physmem.bytes_written::total           1081984                       # Number of bytes written to this memory
system.physmem.num_reads::switch_cpus00.inst           30                       # Number of read requests responded to by this memory
system.physmem.num_reads::switch_cpus00.data         1996                       # Number of read requests responded to by this memory
system.physmem.num_reads::switch_cpus01.inst           40                       # Number of read requests responded to by this memory
system.physmem.num_reads::switch_cpus01.data         1379                       # Number of read requests responded to by this memory
system.physmem.num_reads::switch_cpus02.inst           31                       # Number of read requests responded to by this memory
system.physmem.num_reads::switch_cpus02.data         1990                       # Number of read requests responded to by this memory
system.physmem.num_reads::switch_cpus03.inst           32                       # Number of read requests responded to by this memory
system.physmem.num_reads::switch_cpus03.data         4056                       # Number of read requests responded to by this memory
system.physmem.num_reads::switch_cpus04.inst           36                       # Number of read requests responded to by this memory
system.physmem.num_reads::switch_cpus04.data         1074                       # Number of read requests responded to by this memory
system.physmem.num_reads::switch_cpus05.inst           34                       # Number of read requests responded to by this memory
system.physmem.num_reads::switch_cpus05.data         1994                       # Number of read requests responded to by this memory
system.physmem.num_reads::switch_cpus06.inst           34                       # Number of read requests responded to by this memory
system.physmem.num_reads::switch_cpus06.data         3488                       # Number of read requests responded to by this memory
system.physmem.num_reads::switch_cpus07.inst           34                       # Number of read requests responded to by this memory
system.physmem.num_reads::switch_cpus07.data         4036                       # Number of read requests responded to by this memory
system.physmem.num_reads::switch_cpus08.inst           36                       # Number of read requests responded to by this memory
system.physmem.num_reads::switch_cpus08.data         1074                       # Number of read requests responded to by this memory
system.physmem.num_reads::switch_cpus09.inst           32                       # Number of read requests responded to by this memory
system.physmem.num_reads::switch_cpus09.data         1991                       # Number of read requests responded to by this memory
system.physmem.num_reads::switch_cpus10.inst           33                       # Number of read requests responded to by this memory
system.physmem.num_reads::switch_cpus10.data         1991                       # Number of read requests responded to by this memory
system.physmem.num_reads::switch_cpus11.inst           34                       # Number of read requests responded to by this memory
system.physmem.num_reads::switch_cpus11.data         4043                       # Number of read requests responded to by this memory
system.physmem.num_reads::switch_cpus12.inst           29                       # Number of read requests responded to by this memory
system.physmem.num_reads::switch_cpus12.data         1993                       # Number of read requests responded to by this memory
system.physmem.num_reads::switch_cpus13.inst           43                       # Number of read requests responded to by this memory
system.physmem.num_reads::switch_cpus13.data         1375                       # Number of read requests responded to by this memory
system.physmem.num_reads::switch_cpus14.inst           36                       # Number of read requests responded to by this memory
system.physmem.num_reads::switch_cpus14.data         1074                       # Number of read requests responded to by this memory
system.physmem.num_reads::switch_cpus15.inst           39                       # Number of read requests responded to by this memory
system.physmem.num_reads::switch_cpus15.data         2026                       # Number of read requests responded to by this memory
system.physmem.num_reads::total                 36133                       # Number of read requests responded to by this memory
system.physmem.num_writes::writebacks            8453                       # Number of write requests responded to by this memory
system.physmem.num_writes::functional               0                       # Number of write requests responded to by this memory
system.physmem.num_writes::interrupt                0                       # Number of write requests responded to by this memory
system.physmem.num_writes::switch_cpus00.dtb.walker            0                       # Number of write requests responded to by this memory
system.physmem.num_writes::switch_cpus00.itb.walker            0                       # Number of write requests responded to by this memory
system.physmem.num_writes::switch_cpus00.inst            0                       # Number of write requests responded to by this memory
system.physmem.num_writes::switch_cpus00.data            0                       # Number of write requests responded to by this memory
system.physmem.num_writes::switch_cpus01.dtb.walker            0                       # Number of write requests responded to by this memory
system.physmem.num_writes::switch_cpus01.itb.walker            0                       # Number of write requests responded to by this memory
system.physmem.num_writes::switch_cpus01.inst            0                       # Number of write requests responded to by this memory
system.physmem.num_writes::switch_cpus01.data            0                       # Number of write requests responded to by this memory
system.physmem.num_writes::switch_cpus02.dtb.walker            0                       # Number of write requests responded to by this memory
system.physmem.num_writes::switch_cpus02.itb.walker            0                       # Number of write requests responded to by this memory
system.physmem.num_writes::switch_cpus02.inst            0                       # Number of write requests responded to by this memory
system.physmem.num_writes::switch_cpus02.data            0                       # Number of write requests responded to by this memory
system.physmem.num_writes::switch_cpus03.dtb.walker            0                       # Number of write requests responded to by this memory
system.physmem.num_writes::switch_cpus03.itb.walker            0                       # Number of write requests responded to by this memory
system.physmem.num_writes::switch_cpus03.inst            0                       # Number of write requests responded to by this memory
system.physmem.num_writes::switch_cpus03.data            0                       # Number of write requests responded to by this memory
system.physmem.num_writes::switch_cpus04.dtb.walker            0                       # Number of write requests responded to by this memory
system.physmem.num_writes::switch_cpus04.itb.walker            0                       # Number of write requests responded to by this memory
system.physmem.num_writes::switch_cpus04.inst            0                       # Number of write requests responded to by this memory
system.physmem.num_writes::switch_cpus04.data            0                       # Number of write requests responded to by this memory
system.physmem.num_writes::switch_cpus05.dtb.walker            0                       # Number of write requests responded to by this memory
system.physmem.num_writes::switch_cpus05.itb.walker            0                       # Number of write requests responded to by this memory
system.physmem.num_writes::switch_cpus05.inst            0                       # Number of write requests responded to by this memory
system.physmem.num_writes::switch_cpus05.data            0                       # Number of write requests responded to by this memory
system.physmem.num_writes::switch_cpus06.dtb.walker            0                       # Number of write requests responded to by this memory
system.physmem.num_writes::switch_cpus06.itb.walker            0                       # Number of write requests responded to by this memory
system.physmem.num_writes::switch_cpus06.inst            0                       # Number of write requests responded to by this memory
system.physmem.num_writes::switch_cpus06.data            0                       # Number of write requests responded to by this memory
system.physmem.num_writes::switch_cpus07.dtb.walker            0                       # Number of write requests responded to by this memory
system.physmem.num_writes::switch_cpus07.itb.walker            0                       # Number of write requests responded to by this memory
system.physmem.num_writes::switch_cpus07.inst            0                       # Number of write requests responded to by this memory
system.physmem.num_writes::switch_cpus07.data            0                       # Number of write requests responded to by this memory
system.physmem.num_writes::switch_cpus08.dtb.walker            0                       # Number of write requests responded to by this memory
system.physmem.num_writes::switch_cpus08.itb.walker            0                       # Number of write requests responded to by this memory
system.physmem.num_writes::switch_cpus08.inst            0                       # Number of write requests responded to by this memory
system.physmem.num_writes::switch_cpus08.data            0                       # Number of write requests responded to by this memory
system.physmem.num_writes::switch_cpus09.dtb.walker            0                       # Number of write requests responded to by this memory
system.physmem.num_writes::switch_cpus09.itb.walker            0                       # Number of write requests responded to by this memory
system.physmem.num_writes::switch_cpus09.inst            0                       # Number of write requests responded to by this memory
system.physmem.num_writes::switch_cpus09.data            0                       # Number of write requests responded to by this memory
system.physmem.num_writes::switch_cpus10.dtb.walker            0                       # Number of write requests responded to by this memory
system.physmem.num_writes::switch_cpus10.itb.walker            0                       # Number of write requests responded to by this memory
system.physmem.num_writes::switch_cpus10.inst            0                       # Number of write requests responded to by this memory
system.physmem.num_writes::switch_cpus10.data            0                       # Number of write requests responded to by this memory
system.physmem.num_writes::switch_cpus11.dtb.walker            0                       # Number of write requests responded to by this memory
system.physmem.num_writes::switch_cpus11.itb.walker            0                       # Number of write requests responded to by this memory
system.physmem.num_writes::switch_cpus11.inst            0                       # Number of write requests responded to by this memory
system.physmem.num_writes::switch_cpus11.data            0                       # Number of write requests responded to by this memory
system.physmem.num_writes::switch_cpus12.dtb.walker            0                       # Number of write requests responded to by this memory
system.physmem.num_writes::switch_cpus12.itb.walker            0                       # Number of write requests responded to by this memory
system.physmem.num_writes::switch_cpus12.inst            0                       # Number of write requests responded to by this memory
system.physmem.num_writes::switch_cpus12.data            0                       # Number of write requests responded to by this memory
system.physmem.num_writes::switch_cpus13.dtb.walker            0                       # Number of write requests responded to by this memory
system.physmem.num_writes::switch_cpus13.itb.walker            0                       # Number of write requests responded to by this memory
system.physmem.num_writes::switch_cpus13.inst            0                       # Number of write requests responded to by this memory
system.physmem.num_writes::switch_cpus13.data            0                       # Number of write requests responded to by this memory
system.physmem.num_writes::switch_cpus14.dtb.walker            0                       # Number of write requests responded to by this memory
system.physmem.num_writes::switch_cpus14.itb.walker            0                       # Number of write requests responded to by this memory
system.physmem.num_writes::switch_cpus14.inst            0                       # Number of write requests responded to by this memory
system.physmem.num_writes::switch_cpus14.data            0                       # Number of write requests responded to by this memory
system.physmem.num_writes::switch_cpus15.dtb.walker            0                       # Number of write requests responded to by this memory
system.physmem.num_writes::switch_cpus15.itb.walker            0                       # Number of write requests responded to by this memory
system.physmem.num_writes::switch_cpus15.inst            0                       # Number of write requests responded to by this memory
system.physmem.num_writes::switch_cpus15.data            0                       # Number of write requests responded to by this memory
system.physmem.num_writes::cpu00.dtb.walker            0                       # Number of write requests responded to by this memory
system.physmem.num_writes::cpu00.itb.walker            0                       # Number of write requests responded to by this memory
system.physmem.num_writes::cpu00.inst               0                       # Number of write requests responded to by this memory
system.physmem.num_writes::cpu00.data               0                       # Number of write requests responded to by this memory
system.physmem.num_writes::cpu01.dtb.walker            0                       # Number of write requests responded to by this memory
system.physmem.num_writes::cpu01.itb.walker            0                       # Number of write requests responded to by this memory
system.physmem.num_writes::cpu01.inst               0                       # Number of write requests responded to by this memory
system.physmem.num_writes::cpu01.data               0                       # Number of write requests responded to by this memory
system.physmem.num_writes::cpu02.dtb.walker            0                       # Number of write requests responded to by this memory
system.physmem.num_writes::cpu02.itb.walker            0                       # Number of write requests responded to by this memory
system.physmem.num_writes::cpu02.inst               0                       # Number of write requests responded to by this memory
system.physmem.num_writes::cpu02.data               0                       # Number of write requests responded to by this memory
system.physmem.num_writes::cpu03.dtb.walker            0                       # Number of write requests responded to by this memory
system.physmem.num_writes::cpu03.itb.walker            0                       # Number of write requests responded to by this memory
system.physmem.num_writes::cpu03.inst               0                       # Number of write requests responded to by this memory
system.physmem.num_writes::cpu03.data               0                       # Number of write requests responded to by this memory
system.physmem.num_writes::cpu04.dtb.walker            0                       # Number of write requests responded to by this memory
system.physmem.num_writes::cpu04.itb.walker            0                       # Number of write requests responded to by this memory
system.physmem.num_writes::cpu04.inst               0                       # Number of write requests responded to by this memory
system.physmem.num_writes::cpu04.data               0                       # Number of write requests responded to by this memory
system.physmem.num_writes::cpu05.dtb.walker            0                       # Number of write requests responded to by this memory
system.physmem.num_writes::cpu05.itb.walker            0                       # Number of write requests responded to by this memory
system.physmem.num_writes::cpu05.inst               0                       # Number of write requests responded to by this memory
system.physmem.num_writes::cpu05.data               0                       # Number of write requests responded to by this memory
system.physmem.num_writes::cpu06.dtb.walker            0                       # Number of write requests responded to by this memory
system.physmem.num_writes::cpu06.itb.walker            0                       # Number of write requests responded to by this memory
system.physmem.num_writes::cpu06.inst               0                       # Number of write requests responded to by this memory
system.physmem.num_writes::cpu06.data               0                       # Number of write requests responded to by this memory
system.physmem.num_writes::cpu07.dtb.walker            0                       # Number of write requests responded to by this memory
system.physmem.num_writes::cpu07.itb.walker            0                       # Number of write requests responded to by this memory
system.physmem.num_writes::cpu07.inst               0                       # Number of write requests responded to by this memory
system.physmem.num_writes::cpu07.data               0                       # Number of write requests responded to by this memory
system.physmem.num_writes::cpu08.dtb.walker            0                       # Number of write requests responded to by this memory
system.physmem.num_writes::cpu08.itb.walker            0                       # Number of write requests responded to by this memory
system.physmem.num_writes::cpu08.inst               0                       # Number of write requests responded to by this memory
system.physmem.num_writes::cpu08.data               0                       # Number of write requests responded to by this memory
system.physmem.num_writes::cpu09.dtb.walker            0                       # Number of write requests responded to by this memory
system.physmem.num_writes::cpu09.itb.walker            0                       # Number of write requests responded to by this memory
system.physmem.num_writes::cpu09.inst               0                       # Number of write requests responded to by this memory
system.physmem.num_writes::cpu09.data               0                       # Number of write requests responded to by this memory
system.physmem.num_writes::cpu10.dtb.walker            0                       # Number of write requests responded to by this memory
system.physmem.num_writes::cpu10.itb.walker            0                       # Number of write requests responded to by this memory
system.physmem.num_writes::cpu10.inst               0                       # Number of write requests responded to by this memory
system.physmem.num_writes::cpu10.data               0                       # Number of write requests responded to by this memory
system.physmem.num_writes::cpu11.dtb.walker            0                       # Number of write requests responded to by this memory
system.physmem.num_writes::cpu11.itb.walker            0                       # Number of write requests responded to by this memory
system.physmem.num_writes::cpu11.inst               0                       # Number of write requests responded to by this memory
system.physmem.num_writes::cpu11.data               0                       # Number of write requests responded to by this memory
system.physmem.num_writes::cpu12.dtb.walker            0                       # Number of write requests responded to by this memory
system.physmem.num_writes::cpu12.itb.walker            0                       # Number of write requests responded to by this memory
system.physmem.num_writes::cpu12.inst               0                       # Number of write requests responded to by this memory
system.physmem.num_writes::cpu12.data               0                       # Number of write requests responded to by this memory
system.physmem.num_writes::cpu13.dtb.walker            0                       # Number of write requests responded to by this memory
system.physmem.num_writes::cpu13.itb.walker            0                       # Number of write requests responded to by this memory
system.physmem.num_writes::cpu13.inst               0                       # Number of write requests responded to by this memory
system.physmem.num_writes::cpu13.data               0                       # Number of write requests responded to by this memory
system.physmem.num_writes::cpu14.dtb.walker            0                       # Number of write requests responded to by this memory
system.physmem.num_writes::cpu14.itb.walker            0                       # Number of write requests responded to by this memory
system.physmem.num_writes::cpu14.inst               0                       # Number of write requests responded to by this memory
system.physmem.num_writes::cpu14.data               0                       # Number of write requests responded to by this memory
system.physmem.num_writes::cpu15.dtb.walker            0                       # Number of write requests responded to by this memory
system.physmem.num_writes::cpu15.itb.walker            0                       # Number of write requests responded to by this memory
system.physmem.num_writes::cpu15.inst               0                       # Number of write requests responded to by this memory
system.physmem.num_writes::cpu15.data               0                       # Number of write requests responded to by this memory
system.physmem.num_writes::total                 8453                       # Number of write requests responded to by this memory
system.physmem.bw_read::switch_cpus00.inst       290899                       # Total read bandwidth from this memory (bytes/s)
system.physmem.bw_read::switch_cpus00.data     19354499                       # Total read bandwidth from this memory (bytes/s)
system.physmem.bw_read::switch_cpus01.inst       387866                       # Total read bandwidth from this memory (bytes/s)
system.physmem.bw_read::switch_cpus01.data     13371670                       # Total read bandwidth from this memory (bytes/s)
system.physmem.bw_read::switch_cpus02.inst       300596                       # Total read bandwidth from this memory (bytes/s)
system.physmem.bw_read::switch_cpus02.data     19296319                       # Total read bandwidth from this memory (bytes/s)
system.physmem.bw_read::switch_cpus03.inst       310293                       # Total read bandwidth from this memory (bytes/s)
system.physmem.bw_read::switch_cpus03.data     39329582                       # Total read bandwidth from this memory (bytes/s)
system.physmem.bw_read::switch_cpus04.inst       349079                       # Total read bandwidth from this memory (bytes/s)
system.physmem.bw_read::switch_cpus04.data     10414194                       # Total read bandwidth from this memory (bytes/s)
system.physmem.bw_read::switch_cpus05.inst       329686                       # Total read bandwidth from this memory (bytes/s)
system.physmem.bw_read::switch_cpus05.data     19335105                       # Total read bandwidth from this memory (bytes/s)
system.physmem.bw_read::switch_cpus06.inst       329686                       # Total read bandwidth from this memory (bytes/s)
system.physmem.bw_read::switch_cpus06.data     33821889                       # Total read bandwidth from this memory (bytes/s)
system.physmem.bw_read::switch_cpus07.inst       329686                       # Total read bandwidth from this memory (bytes/s)
system.physmem.bw_read::switch_cpus07.data     39135650                       # Total read bandwidth from this memory (bytes/s)
system.physmem.bw_read::switch_cpus08.inst       349079                       # Total read bandwidth from this memory (bytes/s)
system.physmem.bw_read::switch_cpus08.data     10414194                       # Total read bandwidth from this memory (bytes/s)
system.physmem.bw_read::switch_cpus09.inst       310293                       # Total read bandwidth from this memory (bytes/s)
system.physmem.bw_read::switch_cpus09.data     19306015                       # Total read bandwidth from this memory (bytes/s)
system.physmem.bw_read::switch_cpus10.inst       319989                       # Total read bandwidth from this memory (bytes/s)
system.physmem.bw_read::switch_cpus10.data     19306015                       # Total read bandwidth from this memory (bytes/s)
system.physmem.bw_read::switch_cpus11.inst       329686                       # Total read bandwidth from this memory (bytes/s)
system.physmem.bw_read::switch_cpus11.data     39203526                       # Total read bandwidth from this memory (bytes/s)
system.physmem.bw_read::switch_cpus12.inst       281203                       # Total read bandwidth from this memory (bytes/s)
system.physmem.bw_read::switch_cpus12.data     19325409                       # Total read bandwidth from this memory (bytes/s)
system.physmem.bw_read::switch_cpus13.inst       416956                       # Total read bandwidth from this memory (bytes/s)
system.physmem.bw_read::switch_cpus13.data     13332884                       # Total read bandwidth from this memory (bytes/s)
system.physmem.bw_read::switch_cpus14.inst       349079                       # Total read bandwidth from this memory (bytes/s)
system.physmem.bw_read::switch_cpus14.data     10414194                       # Total read bandwidth from this memory (bytes/s)
system.physmem.bw_read::switch_cpus15.inst       378169                       # Total read bandwidth from this memory (bytes/s)
system.physmem.bw_read::switch_cpus15.data     19645398                       # Total read bandwidth from this memory (bytes/s)
system.physmem.bw_read::total               350368788                       # Total read bandwidth from this memory (bytes/s)
system.physmem.bw_inst_read::switch_cpus00.inst       290899                       # Instruction read bandwidth from this memory (bytes/s)
system.physmem.bw_inst_read::switch_cpus01.inst       387866                       # Instruction read bandwidth from this memory (bytes/s)
system.physmem.bw_inst_read::switch_cpus02.inst       300596                       # Instruction read bandwidth from this memory (bytes/s)
system.physmem.bw_inst_read::switch_cpus03.inst       310293                       # Instruction read bandwidth from this memory (bytes/s)
system.physmem.bw_inst_read::switch_cpus04.inst       349079                       # Instruction read bandwidth from this memory (bytes/s)
system.physmem.bw_inst_read::switch_cpus05.inst       329686                       # Instruction read bandwidth from this memory (bytes/s)
system.physmem.bw_inst_read::switch_cpus06.inst       329686                       # Instruction read bandwidth from this memory (bytes/s)
system.physmem.bw_inst_read::switch_cpus07.inst       329686                       # Instruction read bandwidth from this memory (bytes/s)
system.physmem.bw_inst_read::switch_cpus08.inst       349079                       # Instruction read bandwidth from this memory (bytes/s)
system.physmem.bw_inst_read::switch_cpus09.inst       310293                       # Instruction read bandwidth from this memory (bytes/s)
system.physmem.bw_inst_read::switch_cpus10.inst       319989                       # Instruction read bandwidth from this memory (bytes/s)
system.physmem.bw_inst_read::switch_cpus11.inst       329686                       # Instruction read bandwidth from this memory (bytes/s)
system.physmem.bw_inst_read::switch_cpus12.inst       281203                       # Instruction read bandwidth from this memory (bytes/s)
system.physmem.bw_inst_read::switch_cpus13.inst       416956                       # Instruction read bandwidth from this memory (bytes/s)
system.physmem.bw_inst_read::switch_cpus14.inst       349079                       # Instruction read bandwidth from this memory (bytes/s)
system.physmem.bw_inst_read::switch_cpus15.inst       378169                       # Instruction read bandwidth from this memory (bytes/s)
system.physmem.bw_inst_read::total            5362243                       # Instruction read bandwidth from this memory (bytes/s)
system.physmem.bw_write::writebacks          81965720                       # Write bandwidth from this memory (bytes/s)
system.physmem.bw_write::total               81965720                       # Write bandwidth from this memory (bytes/s)
system.physmem.bw_total::writebacks          81965720                       # Total bandwidth to/from this memory (bytes/s)
system.physmem.bw_total::switch_cpus00.inst       290899                       # Total bandwidth to/from this memory (bytes/s)
system.physmem.bw_total::switch_cpus00.data     19354499                       # Total bandwidth to/from this memory (bytes/s)
system.physmem.bw_total::switch_cpus01.inst       387866                       # Total bandwidth to/from this memory (bytes/s)
system.physmem.bw_total::switch_cpus01.data     13371670                       # Total bandwidth to/from this memory (bytes/s)
system.physmem.bw_total::switch_cpus02.inst       300596                       # Total bandwidth to/from this memory (bytes/s)
system.physmem.bw_total::switch_cpus02.data     19296319                       # Total bandwidth to/from this memory (bytes/s)
system.physmem.bw_total::switch_cpus03.inst       310293                       # Total bandwidth to/from this memory (bytes/s)
system.physmem.bw_total::switch_cpus03.data     39329582                       # Total bandwidth to/from this memory (bytes/s)
system.physmem.bw_total::switch_cpus04.inst       349079                       # Total bandwidth to/from this memory (bytes/s)
system.physmem.bw_total::switch_cpus04.data     10414194                       # Total bandwidth to/from this memory (bytes/s)
system.physmem.bw_total::switch_cpus05.inst       329686                       # Total bandwidth to/from this memory (bytes/s)
system.physmem.bw_total::switch_cpus05.data     19335105                       # Total bandwidth to/from this memory (bytes/s)
system.physmem.bw_total::switch_cpus06.inst       329686                       # Total bandwidth to/from this memory (bytes/s)
system.physmem.bw_total::switch_cpus06.data     33821889                       # Total bandwidth to/from this memory (bytes/s)
system.physmem.bw_total::switch_cpus07.inst       329686                       # Total bandwidth to/from this memory (bytes/s)
system.physmem.bw_total::switch_cpus07.data     39135650                       # Total bandwidth to/from this memory (bytes/s)
system.physmem.bw_total::switch_cpus08.inst       349079                       # Total bandwidth to/from this memory (bytes/s)
system.physmem.bw_total::switch_cpus08.data     10414194                       # Total bandwidth to/from this memory (bytes/s)
system.physmem.bw_total::switch_cpus09.inst       310293                       # Total bandwidth to/from this memory (bytes/s)
system.physmem.bw_total::switch_cpus09.data     19306015                       # Total bandwidth to/from this memory (bytes/s)
system.physmem.bw_total::switch_cpus10.inst       319989                       # Total bandwidth to/from this memory (bytes/s)
system.physmem.bw_total::switch_cpus10.data     19306015                       # Total bandwidth to/from this memory (bytes/s)
system.physmem.bw_total::switch_cpus11.inst       329686                       # Total bandwidth to/from this memory (bytes/s)
system.physmem.bw_total::switch_cpus11.data     39203526                       # Total bandwidth to/from this memory (bytes/s)
system.physmem.bw_total::switch_cpus12.inst       281203                       # Total bandwidth to/from this memory (bytes/s)
system.physmem.bw_total::switch_cpus12.data     19325409                       # Total bandwidth to/from this memory (bytes/s)
system.physmem.bw_total::switch_cpus13.inst       416956                       # Total bandwidth to/from this memory (bytes/s)
system.physmem.bw_total::switch_cpus13.data     13332884                       # Total bandwidth to/from this memory (bytes/s)
system.physmem.bw_total::switch_cpus14.inst       349079                       # Total bandwidth to/from this memory (bytes/s)
system.physmem.bw_total::switch_cpus14.data     10414194                       # Total bandwidth to/from this memory (bytes/s)
system.physmem.bw_total::switch_cpus15.inst       378169                       # Total bandwidth to/from this memory (bytes/s)
system.physmem.bw_total::switch_cpus15.data     19645398                       # Total bandwidth to/from this memory (bytes/s)
system.physmem.bw_total::total              432334508                       # Total bandwidth to/from this memory (bytes/s)
system.switch_cpus00.dtb.inst_hits                  0                       # ITB inst hits
system.switch_cpus00.dtb.inst_misses                0                       # ITB inst misses
system.switch_cpus00.dtb.read_hits                  0                       # DTB read hits
system.switch_cpus00.dtb.read_misses                0                       # DTB read misses
system.switch_cpus00.dtb.write_hits                 0                       # DTB write hits
system.switch_cpus00.dtb.write_misses               0                       # DTB write misses
system.switch_cpus00.dtb.flush_tlb                  0                       # Number of times complete TLB was flushed
system.switch_cpus00.dtb.flush_tlb_mva              0                       # Number of times TLB was flushed by MVA
system.switch_cpus00.dtb.flush_tlb_mva_asid            0                       # Number of times TLB was flushed by MVA & ASID
system.switch_cpus00.dtb.flush_tlb_asid             0                       # Number of times TLB was flushed by ASID
system.switch_cpus00.dtb.flush_entries              0                       # Number of entries that have been flushed from TLB
system.switch_cpus00.dtb.align_faults               0                       # Number of TLB faults due to alignment restrictions
system.switch_cpus00.dtb.prefetch_faults            0                       # Number of TLB faults due to prefetch
system.switch_cpus00.dtb.domain_faults              0                       # Number of TLB faults due to domain restrictions
system.switch_cpus00.dtb.perms_faults               0                       # Number of TLB faults due to permissions restrictions
system.switch_cpus00.dtb.read_accesses              0                       # DTB read accesses
system.switch_cpus00.dtb.write_accesses             0                       # DTB write accesses
system.switch_cpus00.dtb.inst_accesses              0                       # ITB inst accesses
system.switch_cpus00.dtb.hits                       0                       # DTB hits
system.switch_cpus00.dtb.misses                     0                       # DTB misses
system.switch_cpus00.dtb.accesses                   0                       # DTB accesses
system.switch_cpus00.itb.inst_hits                  0                       # ITB inst hits
system.switch_cpus00.itb.inst_misses                0                       # ITB inst misses
system.switch_cpus00.itb.read_hits                  0                       # DTB read hits
system.switch_cpus00.itb.read_misses                0                       # DTB read misses
system.switch_cpus00.itb.write_hits                 0                       # DTB write hits
system.switch_cpus00.itb.write_misses               0                       # DTB write misses
system.switch_cpus00.itb.flush_tlb                  0                       # Number of times complete TLB was flushed
system.switch_cpus00.itb.flush_tlb_mva              0                       # Number of times TLB was flushed by MVA
system.switch_cpus00.itb.flush_tlb_mva_asid            0                       # Number of times TLB was flushed by MVA & ASID
system.switch_cpus00.itb.flush_tlb_asid             0                       # Number of times TLB was flushed by ASID
system.switch_cpus00.itb.flush_entries              0                       # Number of entries that have been flushed from TLB
system.switch_cpus00.itb.align_faults               0                       # Number of TLB faults due to alignment restrictions
system.switch_cpus00.itb.prefetch_faults            0                       # Number of TLB faults due to prefetch
system.switch_cpus00.itb.domain_faults              0                       # Number of TLB faults due to domain restrictions
system.switch_cpus00.itb.perms_faults               0                       # Number of TLB faults due to permissions restrictions
system.switch_cpus00.itb.read_accesses              0                       # DTB read accesses
system.switch_cpus00.itb.write_accesses             0                       # DTB write accesses
system.switch_cpus00.itb.inst_accesses              0                       # ITB inst accesses
system.switch_cpus00.itb.hits                       0                       # DTB hits
system.switch_cpus00.itb.misses                     0                       # DTB misses
system.switch_cpus00.itb.accesses                   0                       # DTB accesses
system.cpu00.workload.num_syscalls                  3                       # Number of system calls
system.switch_cpus00.numCycles               31655745                       # number of cpu cycles simulated
system.switch_cpus00.numWorkItemsStarted            0                       # number of work items this cpu started
system.switch_cpus00.numWorkItemsCompleted            0                       # number of work items this cpu completed
system.switch_cpus00.BPredUnit.lookups        2183321                       # Number of BP lookups
system.switch_cpus00.BPredUnit.condPredicted      1953416                       # Number of conditional branches predicted
system.switch_cpus00.BPredUnit.condIncorrect       175165                       # Number of conditional branches incorrect
system.switch_cpus00.BPredUnit.BTBLookups      1463493                       # Number of BTB lookups
system.switch_cpus00.BPredUnit.BTBHits        1434638                       # Number of BTB hits
system.switch_cpus00.BPredUnit.BTBCorrect            0                       # Number of correct BTB predictions (this stat may not work properly.
system.switch_cpus00.BPredUnit.usedRAS         128375                       # Number of times the RAS was used to get a target.
system.switch_cpus00.BPredUnit.RASInCorrect         5264                       # Number of incorrect RAS predictions.
system.switch_cpus00.fetch.icacheStallCycles     23127506                       # Number of cycles fetch is stalled on an Icache miss
system.switch_cpus00.fetch.Insts             12412073                       # Number of instructions fetch has processed
system.switch_cpus00.fetch.Branches           2183321                       # Number of branches that fetch encountered
system.switch_cpus00.fetch.predictedBranches      1563013                       # Number of branches that fetch has predicted taken
system.switch_cpus00.fetch.Cycles             2768123                       # Number of cycles fetch has run and was not squashing or blocked
system.switch_cpus00.fetch.SquashCycles        576679                       # Number of cycles fetch has spent squashing
system.switch_cpus00.fetch.BlockedCycles       917275                       # Number of cycles fetch has spent blocked
system.switch_cpus00.fetch.MiscStallCycles            1                       # Number of cycles fetch has spent waiting on interrupts, or bad addresses, or out of MSHRs
system.switch_cpus00.fetch.PendingTrapStallCycles           29                       # Number of stall cycles due to pending traps
system.switch_cpus00.fetch.CacheLines         1400420                       # Number of cache lines fetched
system.switch_cpus00.fetch.IcacheSquashes       171589                       # Number of outstanding Icache misses that were squashed
system.switch_cpus00.fetch.rateDist::samples     27213480                       # Number of instructions fetched each cycle (Total)
system.switch_cpus00.fetch.rateDist::mean     0.510165                       # Number of instructions fetched each cycle (Total)
system.switch_cpus00.fetch.rateDist::stdev     1.744480                       # Number of instructions fetched each cycle (Total)
system.switch_cpus00.fetch.rateDist::underflows            0      0.00%      0.00% # Number of instructions fetched each cycle (Total)
system.switch_cpus00.fetch.rateDist::0       24445357     89.83%     89.83% # Number of instructions fetched each cycle (Total)
system.switch_cpus00.fetch.rateDist::1         426058      1.57%     91.39% # Number of instructions fetched each cycle (Total)
system.switch_cpus00.fetch.rateDist::2         210894      0.77%     92.17% # Number of instructions fetched each cycle (Total)
system.switch_cpus00.fetch.rateDist::3         420478      1.55%     93.71% # Number of instructions fetched each cycle (Total)
system.switch_cpus00.fetch.rateDist::4         130975      0.48%     94.20% # Number of instructions fetched each cycle (Total)
system.switch_cpus00.fetch.rateDist::5         390012      1.43%     95.63% # Number of instructions fetched each cycle (Total)
system.switch_cpus00.fetch.rateDist::6          60417      0.22%     95.85% # Number of instructions fetched each cycle (Total)
system.switch_cpus00.fetch.rateDist::7          96676      0.36%     96.21% # Number of instructions fetched each cycle (Total)
system.switch_cpus00.fetch.rateDist::8        1032613      3.79%    100.00% # Number of instructions fetched each cycle (Total)
system.switch_cpus00.fetch.rateDist::overflows            0      0.00%    100.00% # Number of instructions fetched each cycle (Total)
system.switch_cpus00.fetch.rateDist::min_value            0                       # Number of instructions fetched each cycle (Total)
system.switch_cpus00.fetch.rateDist::max_value            8                       # Number of instructions fetched each cycle (Total)
system.switch_cpus00.fetch.rateDist::total     27213480                       # Number of instructions fetched each cycle (Total)
system.switch_cpus00.fetch.branchRate        0.068971                       # Number of branch fetches per cycle
system.switch_cpus00.fetch.rate              0.392095                       # Number of inst fetches per cycle
system.switch_cpus00.decode.IdleCycles       22926950                       # Number of cycles decode is idle
system.switch_cpus00.decode.BlockedCycles      1123475                       # Number of cycles decode is blocked
system.switch_cpus00.decode.RunCycles         2762423                       # Number of cycles decode is running
system.switch_cpus00.decode.UnblockCycles         2290                       # Number of cycles decode is unblocking
system.switch_cpus00.decode.SquashCycles       398338                       # Number of cycles decode is squashing
system.switch_cpus00.decode.BranchResolved       202800                       # Number of times decode resolved a branch
system.switch_cpus00.decode.BranchMispred         2208                       # Number of times decode detected a branch misprediction
system.switch_cpus00.decode.DecodedInsts     13858556                       # Number of instructions handled by decode
system.switch_cpus00.decode.SquashedInsts         5104                       # Number of squashed instructions handled by decode
system.switch_cpus00.rename.SquashCycles       398338                       # Number of cycles rename is squashing
system.switch_cpus00.rename.IdleCycles       22950610                       # Number of cycles rename is idle
system.switch_cpus00.rename.BlockCycles        711148                       # Number of cycles rename is blocking
system.switch_cpus00.rename.serializeStallCycles       338746                       # count of cycles rename stalled for serializing inst
system.switch_cpus00.rename.RunCycles         2738707                       # Number of cycles rename is running
system.switch_cpus00.rename.UnblockCycles        75927                       # Number of cycles rename is unblocking
system.switch_cpus00.rename.RenamedInsts     13837407                       # Number of instructions processed by rename
system.switch_cpus00.rename.ROBFullEvents           24                       # Number of times rename has blocked due to ROB full
system.switch_cpus00.rename.IQFullEvents        10611                       # Number of times rename has blocked due to IQ full
system.switch_cpus00.rename.LSQFullEvents        57007                       # Number of times rename has blocked due to LSQ full
system.switch_cpus00.rename.RenamedOperands     18110493                       # Number of destination operands rename has renamed
system.switch_cpus00.rename.RenameLookups     62673212                       # Number of register rename lookups that rename has made
system.switch_cpus00.rename.int_rename_lookups     62673212                       # Number of integer rename lookups
system.switch_cpus00.rename.CommittedMaps     14646430                       # Number of HB maps that are committed
system.switch_cpus00.rename.UndoneMaps        3464045                       # Number of HB maps that are undone due to squashing
system.switch_cpus00.rename.serializingInsts         1829                       # count of serializing insts renamed
system.switch_cpus00.rename.tempSerializingInsts          930                       # count of temporary serializing insts renamed
system.switch_cpus00.rename.skidInsts          179214                       # count of insts added to the skid buffer
system.switch_cpus00.memDep0.insertedLoads      2518589                       # Number of loads inserted to the mem dependence unit.
system.switch_cpus00.memDep0.insertedStores       398615                       # Number of stores inserted to the mem dependence unit.
system.switch_cpus00.memDep0.conflictingLoads         3312                       # Number of conflicting loads.
system.switch_cpus00.memDep0.conflictingStores        90435                       # Number of conflicting stores.
system.switch_cpus00.iq.iqInstsAdded         13765540                       # Number of instructions added to the IQ (excludes non-spec)
system.switch_cpus00.iq.iqNonSpecInstsAdded         1835                       # Number of non-speculative instructions added to the IQ
system.switch_cpus00.iq.iqInstsIssued        12876212                       # Number of instructions issued
system.switch_cpus00.iq.iqSquashedInstsIssued         8731                       # Number of squashed instructions issued
system.switch_cpus00.iq.iqSquashedInstsExamined      2513208                       # Number of squashed instructions iterated over during squash; mainly for profiling
system.switch_cpus00.iq.iqSquashedOperandsExamined      5163559                       # Number of squashed operands that are examined and possibly removed from graph
system.switch_cpus00.iq.iqSquashedNonSpecRemoved           18                       # Number of squashed non-spec instructions that were removed
system.switch_cpus00.iq.issued_per_cycle::samples     27213480                       # Number of insts issued each cycle
system.switch_cpus00.iq.issued_per_cycle::mean     0.473156                       # Number of insts issued each cycle
system.switch_cpus00.iq.issued_per_cycle::stdev     1.085277                       # Number of insts issued each cycle
system.switch_cpus00.iq.issued_per_cycle::underflows            0      0.00%      0.00% # Number of insts issued each cycle
system.switch_cpus00.iq.issued_per_cycle::0     21569825     79.26%     79.26% # Number of insts issued each cycle
system.switch_cpus00.iq.issued_per_cycle::1      1753701      6.44%     85.71% # Number of insts issued each cycle
system.switch_cpus00.iq.issued_per_cycle::2      1915777      7.04%     92.75% # Number of insts issued each cycle
system.switch_cpus00.iq.issued_per_cycle::3      1100624      4.04%     96.79% # Number of insts issued each cycle
system.switch_cpus00.iq.issued_per_cycle::4       561057      2.06%     98.85% # Number of insts issued each cycle
system.switch_cpus00.iq.issued_per_cycle::5       140504      0.52%     99.37% # Number of insts issued each cycle
system.switch_cpus00.iq.issued_per_cycle::6       164871      0.61%     99.97% # Number of insts issued each cycle
system.switch_cpus00.iq.issued_per_cycle::7         3857      0.01%     99.99% # Number of insts issued each cycle
system.switch_cpus00.iq.issued_per_cycle::8         3264      0.01%    100.00% # Number of insts issued each cycle
system.switch_cpus00.iq.issued_per_cycle::overflows            0      0.00%    100.00% # Number of insts issued each cycle
system.switch_cpus00.iq.issued_per_cycle::min_value            0                       # Number of insts issued each cycle
system.switch_cpus00.iq.issued_per_cycle::max_value            8                       # Number of insts issued each cycle
system.switch_cpus00.iq.issued_per_cycle::total     27213480                       # Number of insts issued each cycle
system.switch_cpus00.iq.fu_full::No_OpClass            0      0.00%      0.00% # attempts to use FU when none available
system.switch_cpus00.iq.fu_full::IntAlu         21159     57.17%     57.17% # attempts to use FU when none available
system.switch_cpus00.iq.fu_full::IntMult            0      0.00%     57.17% # attempts to use FU when none available
system.switch_cpus00.iq.fu_full::IntDiv             0      0.00%     57.17% # attempts to use FU when none available
system.switch_cpus00.iq.fu_full::FloatAdd            0      0.00%     57.17% # attempts to use FU when none available
system.switch_cpus00.iq.fu_full::FloatCmp            0      0.00%     57.17% # attempts to use FU when none available
system.switch_cpus00.iq.fu_full::FloatCvt            0      0.00%     57.17% # attempts to use FU when none available
system.switch_cpus00.iq.fu_full::FloatMult            0      0.00%     57.17% # attempts to use FU when none available
system.switch_cpus00.iq.fu_full::FloatDiv            0      0.00%     57.17% # attempts to use FU when none available
system.switch_cpus00.iq.fu_full::FloatSqrt            0      0.00%     57.17% # attempts to use FU when none available
system.switch_cpus00.iq.fu_full::SimdAdd            0      0.00%     57.17% # attempts to use FU when none available
system.switch_cpus00.iq.fu_full::SimdAddAcc            0      0.00%     57.17% # attempts to use FU when none available
system.switch_cpus00.iq.fu_full::SimdAlu            0      0.00%     57.17% # attempts to use FU when none available
system.switch_cpus00.iq.fu_full::SimdCmp            0      0.00%     57.17% # attempts to use FU when none available
system.switch_cpus00.iq.fu_full::SimdCvt            0      0.00%     57.17% # attempts to use FU when none available
system.switch_cpus00.iq.fu_full::SimdMisc            0      0.00%     57.17% # attempts to use FU when none available
system.switch_cpus00.iq.fu_full::SimdMult            0      0.00%     57.17% # attempts to use FU when none available
system.switch_cpus00.iq.fu_full::SimdMultAcc            0      0.00%     57.17% # attempts to use FU when none available
system.switch_cpus00.iq.fu_full::SimdShift            0      0.00%     57.17% # attempts to use FU when none available
system.switch_cpus00.iq.fu_full::SimdShiftAcc            0      0.00%     57.17% # attempts to use FU when none available
system.switch_cpus00.iq.fu_full::SimdSqrt            0      0.00%     57.17% # attempts to use FU when none available
system.switch_cpus00.iq.fu_full::SimdFloatAdd            0      0.00%     57.17% # attempts to use FU when none available
system.switch_cpus00.iq.fu_full::SimdFloatAlu            0      0.00%     57.17% # attempts to use FU when none available
system.switch_cpus00.iq.fu_full::SimdFloatCmp            0      0.00%     57.17% # attempts to use FU when none available
system.switch_cpus00.iq.fu_full::SimdFloatCvt            0      0.00%     57.17% # attempts to use FU when none available
system.switch_cpus00.iq.fu_full::SimdFloatDiv            0      0.00%     57.17% # attempts to use FU when none available
system.switch_cpus00.iq.fu_full::SimdFloatMisc            0      0.00%     57.17% # attempts to use FU when none available
system.switch_cpus00.iq.fu_full::SimdFloatMult            0      0.00%     57.17% # attempts to use FU when none available
system.switch_cpus00.iq.fu_full::SimdFloatMultAcc            0      0.00%     57.17% # attempts to use FU when none available
system.switch_cpus00.iq.fu_full::SimdFloatSqrt            0      0.00%     57.17% # attempts to use FU when none available
system.switch_cpus00.iq.fu_full::MemRead         8680     23.45%     80.62% # attempts to use FU when none available
system.switch_cpus00.iq.fu_full::MemWrite         7172     19.38%    100.00% # attempts to use FU when none available
system.switch_cpus00.iq.fu_full::IprAccess            0      0.00%    100.00% # attempts to use FU when none available
system.switch_cpus00.iq.fu_full::InstPrefetch            0      0.00%    100.00% # attempts to use FU when none available
system.switch_cpus00.iq.FU_type_0::No_OpClass            0      0.00%      0.00% # Type of FU issued
system.switch_cpus00.iq.FU_type_0::IntAlu     10083375     78.31%     78.31% # Type of FU issued
system.switch_cpus00.iq.FU_type_0::IntMult        99336      0.77%     79.08% # Type of FU issued
system.switch_cpus00.iq.FU_type_0::IntDiv            0      0.00%     79.08% # Type of FU issued
system.switch_cpus00.iq.FU_type_0::FloatAdd            0      0.00%     79.08% # Type of FU issued
system.switch_cpus00.iq.FU_type_0::FloatCmp            0      0.00%     79.08% # Type of FU issued
system.switch_cpus00.iq.FU_type_0::FloatCvt            0      0.00%     79.08% # Type of FU issued
system.switch_cpus00.iq.FU_type_0::FloatMult            0      0.00%     79.08% # Type of FU issued
system.switch_cpus00.iq.FU_type_0::FloatDiv            0      0.00%     79.08% # Type of FU issued
system.switch_cpus00.iq.FU_type_0::FloatSqrt            0      0.00%     79.08% # Type of FU issued
system.switch_cpus00.iq.FU_type_0::SimdAdd            0      0.00%     79.08% # Type of FU issued
system.switch_cpus00.iq.FU_type_0::SimdAddAcc            0      0.00%     79.08% # Type of FU issued
system.switch_cpus00.iq.FU_type_0::SimdAlu            0      0.00%     79.08% # Type of FU issued
system.switch_cpus00.iq.FU_type_0::SimdCmp            0      0.00%     79.08% # Type of FU issued
system.switch_cpus00.iq.FU_type_0::SimdCvt            0      0.00%     79.08% # Type of FU issued
system.switch_cpus00.iq.FU_type_0::SimdMisc            0      0.00%     79.08% # Type of FU issued
system.switch_cpus00.iq.FU_type_0::SimdMult            0      0.00%     79.08% # Type of FU issued
system.switch_cpus00.iq.FU_type_0::SimdMultAcc            0      0.00%     79.08% # Type of FU issued
system.switch_cpus00.iq.FU_type_0::SimdShift            0      0.00%     79.08% # Type of FU issued
system.switch_cpus00.iq.FU_type_0::SimdShiftAcc            0      0.00%     79.08% # Type of FU issued
system.switch_cpus00.iq.FU_type_0::SimdSqrt            0      0.00%     79.08% # Type of FU issued
system.switch_cpus00.iq.FU_type_0::SimdFloatAdd            0      0.00%     79.08% # Type of FU issued
system.switch_cpus00.iq.FU_type_0::SimdFloatAlu            0      0.00%     79.08% # Type of FU issued
system.switch_cpus00.iq.FU_type_0::SimdFloatCmp            0      0.00%     79.08% # Type of FU issued
system.switch_cpus00.iq.FU_type_0::SimdFloatCvt            0      0.00%     79.08% # Type of FU issued
system.switch_cpus00.iq.FU_type_0::SimdFloatDiv            0      0.00%     79.08% # Type of FU issued
system.switch_cpus00.iq.FU_type_0::SimdFloatMisc          901      0.01%     79.09% # Type of FU issued
system.switch_cpus00.iq.FU_type_0::SimdFloatMult            0      0.00%     79.09% # Type of FU issued
system.switch_cpus00.iq.FU_type_0::SimdFloatMultAcc            0      0.00%     79.09% # Type of FU issued
system.switch_cpus00.iq.FU_type_0::SimdFloatSqrt            0      0.00%     79.09% # Type of FU issued
system.switch_cpus00.iq.FU_type_0::MemRead      2297514     17.84%     96.93% # Type of FU issued
system.switch_cpus00.iq.FU_type_0::MemWrite       395086      3.07%    100.00% # Type of FU issued
system.switch_cpus00.iq.FU_type_0::IprAccess            0      0.00%    100.00% # Type of FU issued
system.switch_cpus00.iq.FU_type_0::InstPrefetch            0      0.00%    100.00% # Type of FU issued
system.switch_cpus00.iq.FU_type_0::total     12876212                       # Type of FU issued
system.switch_cpus00.iq.rate                 0.406758                       # Inst issue rate
system.switch_cpus00.iq.fu_busy_cnt             37011                       # FU busy when requested
system.switch_cpus00.iq.fu_busy_rate         0.002874                       # FU busy rate (busy events/executed inst)
system.switch_cpus00.iq.int_inst_queue_reads     53011645                       # Number of integer instruction queue reads
system.switch_cpus00.iq.int_inst_queue_writes     16280633                       # Number of integer instruction queue writes
system.switch_cpus00.iq.int_inst_queue_wakeup_accesses     12547057                       # Number of integer instruction queue wakeup accesses
system.switch_cpus00.iq.fp_inst_queue_reads            0                       # Number of floating instruction queue reads
system.switch_cpus00.iq.fp_inst_queue_writes            0                       # Number of floating instruction queue writes
system.switch_cpus00.iq.fp_inst_queue_wakeup_accesses            0                       # Number of floating instruction queue wakeup accesses
system.switch_cpus00.iq.int_alu_accesses     12913223                       # Number of integer alu accesses
system.switch_cpus00.iq.fp_alu_accesses             0                       # Number of floating point alu accesses
system.switch_cpus00.iew.lsq.thread0.forwLoads        10114                       # Number of loads that had data forwarded from stores
system.switch_cpus00.iew.lsq.thread0.invAddrLoads            0                       # Number of loads ignored due to an invalid address
system.switch_cpus00.iew.lsq.thread0.squashedLoads       515631                       # Number of loads squashed
system.switch_cpus00.iew.lsq.thread0.ignoredResponses           18                       # Number of memory responses ignored because the instruction is squashed
system.switch_cpus00.iew.lsq.thread0.memOrderViolation           52                       # Number of memory ordering violations
system.switch_cpus00.iew.lsq.thread0.squashedStores        10308                       # Number of stores squashed
system.switch_cpus00.iew.lsq.thread0.invAddrSwpfs            0                       # Number of software prefetches ignored due to an invalid address
system.switch_cpus00.iew.lsq.thread0.blockedLoads            0                       # Number of blocked loads due to partial load-store forwarding
system.switch_cpus00.iew.lsq.thread0.rescheduledLoads            0                       # Number of loads that were rescheduled
system.switch_cpus00.iew.lsq.thread0.cacheBlocked            0                       # Number of times an access to memory failed due to the cache being blocked
system.switch_cpus00.iew.iewIdleCycles              0                       # Number of cycles IEW is idle
system.switch_cpus00.iew.iewSquashCycles       398338                       # Number of cycles IEW is squashing
system.switch_cpus00.iew.iewBlockCycles        628568                       # Number of cycles IEW is blocking
system.switch_cpus00.iew.iewUnblockCycles         9038                       # Number of cycles IEW is unblocking
system.switch_cpus00.iew.iewDispatchedInsts     13767390                       # Number of instructions dispatched to IQ
system.switch_cpus00.iew.iewDispSquashedInsts         1789                       # Number of squashed instructions skipped by dispatch
system.switch_cpus00.iew.iewDispLoadInsts      2518589                       # Number of dispatched load instructions
system.switch_cpus00.iew.iewDispStoreInsts       398615                       # Number of dispatched store instructions
system.switch_cpus00.iew.iewDispNonSpecInsts          928                       # Number of dispatched non-speculative instructions
system.switch_cpus00.iew.iewIQFullEvents         4577                       # Number of times the IQ has become full, causing a stall
system.switch_cpus00.iew.iewLSQFullEvents          235                       # Number of times the LSQ has become full, causing a stall
system.switch_cpus00.iew.memOrderViolationEvents           52                       # Number of memory order violations
system.switch_cpus00.iew.predictedTakenIncorrect       117524                       # Number of branches that were predicted taken incorrectly
system.switch_cpus00.iew.predictedNotTakenIncorrect        67917                       # Number of branches that were predicted not taken incorrectly
system.switch_cpus00.iew.branchMispredicts       185441                       # Number of branch mispredicts detected at execute
system.switch_cpus00.iew.iewExecutedInsts     12713621                       # Number of executed instructions
system.switch_cpus00.iew.iewExecLoadInsts      2264978                       # Number of load instructions executed
system.switch_cpus00.iew.iewExecSquashedInsts       162590                       # Number of squashed instructions skipped in execute
system.switch_cpus00.iew.exec_swp                   0                       # number of swp insts executed
system.switch_cpus00.iew.exec_nop                  15                       # number of nop insts executed
system.switch_cpus00.iew.exec_refs            2660027                       # number of memory reference insts executed
system.switch_cpus00.iew.exec_branches        1934083                       # Number of branches executed
system.switch_cpus00.iew.exec_stores           395049                       # Number of stores executed
system.switch_cpus00.iew.exec_rate           0.401621                       # Inst execution rate
system.switch_cpus00.iew.wb_sent             12550057                       # cumulative count of insts sent to commit
system.switch_cpus00.iew.wb_count            12547057                       # cumulative count of insts written-back
system.switch_cpus00.iew.wb_producers         7599967                       # num instructions producing a value
system.switch_cpus00.iew.wb_consumers        16461179                       # num instructions consuming a value
system.switch_cpus00.iew.wb_penalized               0                       # number of instrctions required to write to 'other' IQ
system.switch_cpus00.iew.wb_rate             0.396360                       # insts written-back per cycle
system.switch_cpus00.iew.wb_fanout           0.461690                       # average fanout of values written-back
system.switch_cpus00.iew.wb_penalized_rate            0                       # fraction of instructions written-back that wrote to 'other' IQ
system.switch_cpus00.commit.commitCommittedInsts     10000002                       # The number of committed instructions
system.switch_cpus00.commit.commitCommittedOps     11236447                       # The number of committed instructions
system.switch_cpus00.commit.commitSquashedInsts      2531472                       # The number of squashed insts skipped by commit
system.switch_cpus00.commit.commitNonSpecStalls         1817                       # The number of times commit has been forced to stall to communicate backwards
system.switch_cpus00.commit.branchMispredicts       173890                       # The number of times a branch was mispredicted
system.switch_cpus00.commit.committed_per_cycle::samples     26815142                       # Number of insts commited each cycle
system.switch_cpus00.commit.committed_per_cycle::mean     0.419034                       # Number of insts commited each cycle
system.switch_cpus00.commit.committed_per_cycle::stdev     1.286891                       # Number of insts commited each cycle
system.switch_cpus00.commit.committed_per_cycle::underflows            0      0.00%      0.00% # Number of insts commited each cycle
system.switch_cpus00.commit.committed_per_cycle::0     22641435     84.44%     84.44% # Number of insts commited each cycle
system.switch_cpus00.commit.committed_per_cycle::1      1632437      6.09%     90.52% # Number of insts commited each cycle
system.switch_cpus00.commit.committed_per_cycle::2      1055986      3.94%     94.46% # Number of insts commited each cycle
system.switch_cpus00.commit.committed_per_cycle::3       331112      1.23%     95.70% # Number of insts commited each cycle
system.switch_cpus00.commit.committed_per_cycle::4       555306      2.07%     97.77% # Number of insts commited each cycle
system.switch_cpus00.commit.committed_per_cycle::5       105796      0.39%     98.16% # Number of insts commited each cycle
system.switch_cpus00.commit.committed_per_cycle::6        67494      0.25%     98.41% # Number of insts commited each cycle
system.switch_cpus00.commit.committed_per_cycle::7        61074      0.23%     98.64% # Number of insts commited each cycle
system.switch_cpus00.commit.committed_per_cycle::8       364502      1.36%    100.00% # Number of insts commited each cycle
system.switch_cpus00.commit.committed_per_cycle::overflows            0      0.00%    100.00% # Number of insts commited each cycle
system.switch_cpus00.commit.committed_per_cycle::min_value            0                       # Number of insts commited each cycle
system.switch_cpus00.commit.committed_per_cycle::max_value            8                       # Number of insts commited each cycle
system.switch_cpus00.commit.committed_per_cycle::total     26815142                       # Number of insts commited each cycle
system.switch_cpus00.commit.committedInsts     10000002                       # Number of instructions committed
system.switch_cpus00.commit.committedOps     11236447                       # Number of ops (including micro ops) committed
system.switch_cpus00.commit.swp_count               0                       # Number of s/w prefetches committed
system.switch_cpus00.commit.refs              2391262                       # Number of memory references committed
system.switch_cpus00.commit.loads             2002955                       # Number of loads committed
system.switch_cpus00.commit.membars               907                       # Number of memory barriers committed
system.switch_cpus00.commit.branches          1725938                       # Number of branches committed
system.switch_cpus00.commit.fp_insts                0                       # Number of committed floating point instructions.
system.switch_cpus00.commit.int_insts         9812683                       # Number of committed integer instructions.
system.switch_cpus00.commit.function_calls       138175                       # Number of function calls committed.
system.switch_cpus00.commit.bw_lim_events       364502                       # number cycles where commit BW limit reached
system.switch_cpus00.commit.bw_limited              0                       # number of insts not committed due to BW limits
system.switch_cpus00.rob.rob_reads           40218520                       # The number of ROB reads
system.switch_cpus00.rob.rob_writes          27934514                       # The number of ROB writes
system.switch_cpus00.timesIdled                518702                       # Number of times that the entire CPU went into an idle state and unscheduled itself
system.switch_cpus00.idleCycles               4442265                       # Total number of cycles that the CPU has spent unscheduled due to idling
system.switch_cpus00.committedInsts          10000002                       # Number of Instructions Simulated
system.switch_cpus00.committedOps            11236447                       # Number of Ops (including micro ops) Simulated
system.switch_cpus00.committedInsts_total     10000002                       # Number of Instructions Simulated
system.switch_cpus00.cpi                     3.165574                       # CPI: Cycles Per Instruction
system.switch_cpus00.cpi_total               3.165574                       # CPI: Total CPI of All Threads
system.switch_cpus00.ipc                     0.315898                       # IPC: Instructions Per Cycle
system.switch_cpus00.ipc_total               0.315898                       # IPC: Total IPC of All Threads
system.switch_cpus00.int_regfile_reads       59129974                       # number of integer regfile reads
system.switch_cpus00.int_regfile_writes      16327477                       # number of integer regfile writes
system.switch_cpus00.misc_regfile_reads      14753074                       # number of misc regfile reads
system.switch_cpus00.misc_regfile_writes         1814                       # number of misc regfile writes
system.switch_cpus01.dtb.inst_hits                  0                       # ITB inst hits
system.switch_cpus01.dtb.inst_misses                0                       # ITB inst misses
system.switch_cpus01.dtb.read_hits                  0                       # DTB read hits
system.switch_cpus01.dtb.read_misses                0                       # DTB read misses
system.switch_cpus01.dtb.write_hits                 0                       # DTB write hits
system.switch_cpus01.dtb.write_misses               0                       # DTB write misses
system.switch_cpus01.dtb.flush_tlb                  0                       # Number of times complete TLB was flushed
system.switch_cpus01.dtb.flush_tlb_mva              0                       # Number of times TLB was flushed by MVA
system.switch_cpus01.dtb.flush_tlb_mva_asid            0                       # Number of times TLB was flushed by MVA & ASID
system.switch_cpus01.dtb.flush_tlb_asid             0                       # Number of times TLB was flushed by ASID
system.switch_cpus01.dtb.flush_entries              0                       # Number of entries that have been flushed from TLB
system.switch_cpus01.dtb.align_faults               0                       # Number of TLB faults due to alignment restrictions
system.switch_cpus01.dtb.prefetch_faults            0                       # Number of TLB faults due to prefetch
system.switch_cpus01.dtb.domain_faults              0                       # Number of TLB faults due to domain restrictions
system.switch_cpus01.dtb.perms_faults               0                       # Number of TLB faults due to permissions restrictions
system.switch_cpus01.dtb.read_accesses              0                       # DTB read accesses
system.switch_cpus01.dtb.write_accesses             0                       # DTB write accesses
system.switch_cpus01.dtb.inst_accesses              0                       # ITB inst accesses
system.switch_cpus01.dtb.hits                       0                       # DTB hits
[...]
system.cpu15.icache.demand_avg_miss_latency::total 1761220.981818                       # average overall miss latency
system.cpu15.icache.overall_avg_miss_latency::switch_cpus15.inst 1761220.981818                       # average overall miss latency
system.cpu15.icache.overall_avg_miss_latency::total 1761220.981818                       # average overall miss latency
system.cpu15.icache.blocked_cycles::no_mshrs            0                       # number of cycles access was blocked
system.cpu15.icache.blocked_cycles::no_targets            0                       # number of cycles access was blocked
system.cpu15.icache.blocked::no_mshrs               0                       # number of cycles access was blocked
system.cpu15.icache.blocked::no_targets             0                       # number of cycles access was blocked
system.cpu15.icache.avg_blocked_cycles::no_mshrs          nan                       # average number of cycles each access was blocked
system.cpu15.icache.avg_blocked_cycles::no_targets          nan                       # average number of cycles each access was blocked
system.cpu15.icache.fast_writes                     0                       # number of fast writes performed
system.cpu15.icache.cache_copies                    0                       # number of cache copies performed
system.cpu15.icache.ReadReq_mshr_hits::switch_cpus15.inst           15                       # number of ReadReq MSHR hits
system.cpu15.icache.ReadReq_mshr_hits::total           15                       # number of ReadReq MSHR hits
system.cpu15.icache.demand_mshr_hits::switch_cpus15.inst           15                       # number of demand (read+write) MSHR hits
system.cpu15.icache.demand_mshr_hits::total           15                       # number of demand (read+write) MSHR hits
system.cpu15.icache.overall_mshr_hits::switch_cpus15.inst           15                       # number of overall MSHR hits
system.cpu15.icache.overall_mshr_hits::total           15                       # number of overall MSHR hits
system.cpu15.icache.ReadReq_mshr_misses::switch_cpus15.inst           40                       # number of ReadReq MSHR misses
system.cpu15.icache.ReadReq_mshr_misses::total           40                       # number of ReadReq MSHR misses
system.cpu15.icache.demand_mshr_misses::switch_cpus15.inst           40                       # number of demand (read+write) MSHR misses
system.cpu15.icache.demand_mshr_misses::total           40                       # number of demand (read+write) MSHR misses
system.cpu15.icache.overall_mshr_misses::switch_cpus15.inst           40                       # number of overall MSHR misses
system.cpu15.icache.overall_mshr_misses::total           40                       # number of overall MSHR misses
system.cpu15.icache.ReadReq_mshr_miss_latency::switch_cpus15.inst     70344763                       # number of ReadReq MSHR miss cycles
system.cpu15.icache.ReadReq_mshr_miss_latency::total     70344763                       # number of ReadReq MSHR miss cycles
system.cpu15.icache.demand_mshr_miss_latency::switch_cpus15.inst     70344763                       # number of demand (read+write) MSHR miss cycles
system.cpu15.icache.demand_mshr_miss_latency::total     70344763                       # number of demand (read+write) MSHR miss cycles
system.cpu15.icache.overall_mshr_miss_latency::switch_cpus15.inst     70344763                       # number of overall MSHR miss cycles
system.cpu15.icache.overall_mshr_miss_latency::total     70344763                       # number of overall MSHR miss cycles
system.cpu15.icache.ReadReq_mshr_miss_rate::switch_cpus15.inst     0.000029                       # mshr miss rate for ReadReq accesses
system.cpu15.icache.ReadReq_mshr_miss_rate::total     0.000029                       # mshr miss rate for ReadReq accesses
system.cpu15.icache.demand_mshr_miss_rate::switch_cpus15.inst     0.000029                       # mshr miss rate for demand accesses
system.cpu15.icache.demand_mshr_miss_rate::total     0.000029                       # mshr miss rate for demand accesses
system.cpu15.icache.overall_mshr_miss_rate::switch_cpus15.inst     0.000029                       # mshr miss rate for overall accesses
system.cpu15.icache.overall_mshr_miss_rate::total     0.000029                       # mshr miss rate for overall accesses
system.cpu15.icache.ReadReq_avg_mshr_miss_latency::switch_cpus15.inst 1758619.075000                       # average ReadReq mshr miss latency
system.cpu15.icache.ReadReq_avg_mshr_miss_latency::total 1758619.075000                       # average ReadReq mshr miss latency
system.cpu15.icache.demand_avg_mshr_miss_latency::switch_cpus15.inst 1758619.075000                       # average overall mshr miss latency
system.cpu15.icache.demand_avg_mshr_miss_latency::total 1758619.075000                       # average overall mshr miss latency
system.cpu15.icache.overall_avg_mshr_miss_latency::switch_cpus15.inst 1758619.075000                       # average overall mshr miss latency
system.cpu15.icache.overall_avg_mshr_miss_latency::total 1758619.075000                       # average overall mshr miss latency
system.cpu15.icache.no_allocate_misses              0                       # Number of misses that were no-allocate
system.cpu15.dcache.replacements                 6095                       # number of replacements
system.cpu15.dcache.tagsinuse                     256                       # Cycle average of tags in use
system.cpu15.dcache.total_refs              170145098                       # Total number of references to valid blocks.
system.cpu15.dcache.sampled_refs                 6351                       # Sample count of references to valid blocks.
system.cpu15.dcache.avg_refs             26790.284680                       # Average number of references to valid blocks.
system.cpu15.dcache.warmup_cycle                    0                       # Cycle when the warmup percentage was hit.
system.cpu15.dcache.occ_blocks::switch_cpus15.data   227.508793                       # Average occupied blocks per requestor
system.cpu15.dcache.occ_blocks::cpu15.data    28.491207                       # Average occupied blocks per requestor
system.cpu15.dcache.occ_percent::switch_cpus15.data     0.888706                       # Average percentage of cache occupancy
system.cpu15.dcache.occ_percent::cpu15.data     0.111294                       # Average percentage of cache occupancy
system.cpu15.dcache.occ_percent::total              1                       # Average percentage of cache occupancy
system.cpu15.dcache.ReadReq_hits::switch_cpus15.data       969322                       # number of ReadReq hits
system.cpu15.dcache.ReadReq_hits::total        969322                       # number of ReadReq hits
system.cpu15.dcache.WriteReq_hits::switch_cpus15.data       818690                       # number of WriteReq hits
system.cpu15.dcache.WriteReq_hits::total       818690                       # number of WriteReq hits
system.cpu15.dcache.LoadLockedReq_hits::switch_cpus15.data         1943                       # number of LoadLockedReq hits
system.cpu15.dcache.LoadLockedReq_hits::total         1943                       # number of LoadLockedReq hits
system.cpu15.dcache.StoreCondReq_hits::switch_cpus15.data         1885                       # number of StoreCondReq hits
system.cpu15.dcache.StoreCondReq_hits::total         1885                       # number of StoreCondReq hits
system.cpu15.dcache.demand_hits::switch_cpus15.data      1788012                       # number of demand (read+write) hits
system.cpu15.dcache.demand_hits::total        1788012                       # number of demand (read+write) hits
system.cpu15.dcache.overall_hits::switch_cpus15.data      1788012                       # number of overall hits
system.cpu15.dcache.overall_hits::total       1788012                       # number of overall hits
system.cpu15.dcache.ReadReq_misses::switch_cpus15.data        21029                       # number of ReadReq misses
system.cpu15.dcache.ReadReq_misses::total        21029                       # number of ReadReq misses
system.cpu15.dcache.WriteReq_misses::switch_cpus15.data          477                       # number of WriteReq misses
system.cpu15.dcache.WriteReq_misses::total          477                       # number of WriteReq misses
system.cpu15.dcache.demand_misses::switch_cpus15.data        21506                       # number of demand (read+write) misses
system.cpu15.dcache.demand_misses::total        21506                       # number of demand (read+write) misses
system.cpu15.dcache.overall_misses::switch_cpus15.data        21506                       # number of overall misses
system.cpu15.dcache.overall_misses::total        21506                       # number of overall misses
system.cpu15.dcache.ReadReq_miss_latency::switch_cpus15.data   8640994778                       # number of ReadReq miss cycles
system.cpu15.dcache.ReadReq_miss_latency::total   8640994778                       # number of ReadReq miss cycles
system.cpu15.dcache.WriteReq_miss_latency::switch_cpus15.data    265961749                       # number of WriteReq miss cycles
system.cpu15.dcache.WriteReq_miss_latency::total    265961749                       # number of WriteReq miss cycles
system.cpu15.dcache.demand_miss_latency::switch_cpus15.data   8906956527                       # number of demand (read+write) miss cycles
system.cpu15.dcache.demand_miss_latency::total   8906956527                       # number of demand (read+write) miss cycles
system.cpu15.dcache.overall_miss_latency::switch_cpus15.data   8906956527                       # number of overall miss cycles
system.cpu15.dcache.overall_miss_latency::total   8906956527                       # number of overall miss cycles
system.cpu15.dcache.ReadReq_accesses::switch_cpus15.data       990351                       # number of ReadReq accesses(hits+misses)
system.cpu15.dcache.ReadReq_accesses::total       990351                       # number of ReadReq accesses(hits+misses)
system.cpu15.dcache.WriteReq_accesses::switch_cpus15.data       819167                       # number of WriteReq accesses(hits+misses)
system.cpu15.dcache.WriteReq_accesses::total       819167                       # number of WriteReq accesses(hits+misses)
system.cpu15.dcache.LoadLockedReq_accesses::switch_cpus15.data         1943                       # number of LoadLockedReq accesses(hits+misses)
system.cpu15.dcache.LoadLockedReq_accesses::total         1943                       # number of LoadLockedReq accesses(hits+misses)
system.cpu15.dcache.StoreCondReq_accesses::switch_cpus15.data         1885                       # number of StoreCondReq accesses(hits+misses)
system.cpu15.dcache.StoreCondReq_accesses::total         1885                       # number of StoreCondReq accesses(hits+misses)
system.cpu15.dcache.demand_accesses::switch_cpus15.data      1809518                       # number of demand (read+write) accesses
system.cpu15.dcache.demand_accesses::total      1809518                       # number of demand (read+write) accesses
system.cpu15.dcache.overall_accesses::switch_cpus15.data      1809518                       # number of overall (read+write) accesses
system.cpu15.dcache.overall_accesses::total      1809518                       # number of overall (read+write) accesses
system.cpu15.dcache.ReadReq_miss_rate::switch_cpus15.data     0.021234                       # miss rate for ReadReq accesses
system.cpu15.dcache.ReadReq_miss_rate::total     0.021234                       # miss rate for ReadReq accesses
system.cpu15.dcache.WriteReq_miss_rate::switch_cpus15.data     0.000582                       # miss rate for WriteReq accesses
system.cpu15.dcache.WriteReq_miss_rate::total     0.000582                       # miss rate for WriteReq accesses
system.cpu15.dcache.demand_miss_rate::switch_cpus15.data     0.011885                       # miss rate for demand accesses
system.cpu15.dcache.demand_miss_rate::total     0.011885                       # miss rate for demand accesses
system.cpu15.dcache.overall_miss_rate::switch_cpus15.data     0.011885                       # miss rate for overall accesses
system.cpu15.dcache.overall_miss_rate::total     0.011885                       # miss rate for overall accesses
system.cpu15.dcache.ReadReq_avg_miss_latency::switch_cpus15.data 410908.496743                       # average ReadReq miss latency
system.cpu15.dcache.ReadReq_avg_miss_latency::total 410908.496743                       # average ReadReq miss latency
system.cpu15.dcache.WriteReq_avg_miss_latency::switch_cpus15.data 557571.800839                       # average WriteReq miss latency
system.cpu15.dcache.WriteReq_avg_miss_latency::total 557571.800839                       # average WriteReq miss latency
system.cpu15.dcache.demand_avg_miss_latency::switch_cpus15.data 414161.467823                       # average overall miss latency
system.cpu15.dcache.demand_avg_miss_latency::total 414161.467823                       # average overall miss latency
system.cpu15.dcache.overall_avg_miss_latency::switch_cpus15.data 414161.467823                       # average overall miss latency
system.cpu15.dcache.overall_avg_miss_latency::total 414161.467823                       # average overall miss latency
system.cpu15.dcache.blocked_cycles::no_mshrs            0                       # number of cycles access was blocked
system.cpu15.dcache.blocked_cycles::no_targets      8411601                       # number of cycles access was blocked
system.cpu15.dcache.blocked::no_mshrs               0                       # number of cycles access was blocked
system.cpu15.dcache.blocked::no_targets            12                       # number of cycles access was blocked
system.cpu15.dcache.avg_blocked_cycles::no_mshrs          nan                       # average number of cycles each access was blocked
system.cpu15.dcache.avg_blocked_cycles::no_targets 700966.750000                       # average number of cycles each access was blocked
system.cpu15.dcache.fast_writes                     0                       # number of fast writes performed
system.cpu15.dcache.cache_copies                    0                       # number of cache copies performed
system.cpu15.dcache.writebacks::writebacks         2185                       # number of writebacks
system.cpu15.dcache.writebacks::total            2185                       # number of writebacks
system.cpu15.dcache.ReadReq_mshr_hits::switch_cpus15.data        14952                       # number of ReadReq MSHR hits
system.cpu15.dcache.ReadReq_mshr_hits::total        14952                       # number of ReadReq MSHR hits
system.cpu15.dcache.WriteReq_mshr_hits::switch_cpus15.data          459                       # number of WriteReq MSHR hits
system.cpu15.dcache.WriteReq_mshr_hits::total          459                       # number of WriteReq MSHR hits
system.cpu15.dcache.demand_mshr_hits::switch_cpus15.data        15411                       # number of demand (read+write) MSHR hits
system.cpu15.dcache.demand_mshr_hits::total        15411                       # number of demand (read+write) MSHR hits
system.cpu15.dcache.overall_mshr_hits::switch_cpus15.data        15411                       # number of overall MSHR hits
system.cpu15.dcache.overall_mshr_hits::total        15411                       # number of overall MSHR hits
system.cpu15.dcache.ReadReq_mshr_misses::switch_cpus15.data         6077                       # number of ReadReq MSHR misses
system.cpu15.dcache.ReadReq_mshr_misses::total         6077                       # number of ReadReq MSHR misses
system.cpu15.dcache.WriteReq_mshr_misses::switch_cpus15.data           18                       # number of WriteReq MSHR misses
system.cpu15.dcache.WriteReq_mshr_misses::total           18                       # number of WriteReq MSHR misses
system.cpu15.dcache.demand_mshr_misses::switch_cpus15.data         6095                       # number of demand (read+write) MSHR misses
system.cpu15.dcache.demand_mshr_misses::total         6095                       # number of demand (read+write) MSHR misses
system.cpu15.dcache.overall_mshr_misses::switch_cpus15.data         6095                       # number of overall MSHR misses
system.cpu15.dcache.overall_mshr_misses::total         6095                       # number of overall MSHR misses
system.cpu15.dcache.ReadReq_mshr_miss_latency::switch_cpus15.data   2003500699                       # number of ReadReq MSHR miss cycles
system.cpu15.dcache.ReadReq_mshr_miss_latency::total   2003500699                       # number of ReadReq MSHR miss cycles
system.cpu15.dcache.WriteReq_mshr_miss_latency::switch_cpus15.data      1164056                       # number of WriteReq MSHR miss cycles
system.cpu15.dcache.WriteReq_mshr_miss_latency::total      1164056                       # number of WriteReq MSHR miss cycles
system.cpu15.dcache.demand_mshr_miss_latency::switch_cpus15.data   2004664755                       # number of demand (read+write) MSHR miss cycles
system.cpu15.dcache.demand_mshr_miss_latency::total   2004664755                       # number of demand (read+write) MSHR miss cycles
system.cpu15.dcache.overall_mshr_miss_latency::switch_cpus15.data   2004664755                       # number of overall MSHR miss cycles
system.cpu15.dcache.overall_mshr_miss_latency::total   2004664755                       # number of overall MSHR miss cycles
system.cpu15.dcache.ReadReq_mshr_miss_rate::switch_cpus15.data     0.006136                       # mshr miss rate for ReadReq accesses
system.cpu15.dcache.ReadReq_mshr_miss_rate::total     0.006136                       # mshr miss rate for ReadReq accesses
system.cpu15.dcache.WriteReq_mshr_miss_rate::switch_cpus15.data     0.000022                       # mshr miss rate for WriteReq accesses
system.cpu15.dcache.WriteReq_mshr_miss_rate::total     0.000022                       # mshr miss rate for WriteReq accesses
system.cpu15.dcache.demand_mshr_miss_rate::switch_cpus15.data     0.003368                       # mshr miss rate for demand accesses
system.cpu15.dcache.demand_mshr_miss_rate::total     0.003368                       # mshr miss rate for demand accesses
system.cpu15.dcache.overall_mshr_miss_rate::switch_cpus15.data     0.003368                       # mshr miss rate for overall accesses
system.cpu15.dcache.overall_mshr_miss_rate::total     0.003368                       # mshr miss rate for overall accesses
system.cpu15.dcache.ReadReq_avg_mshr_miss_latency::switch_cpus15.data 329685.815205                       # average ReadReq mshr miss latency
system.cpu15.dcache.ReadReq_avg_mshr_miss_latency::total 329685.815205                       # average ReadReq mshr miss latency
system.cpu15.dcache.WriteReq_avg_mshr_miss_latency::switch_cpus15.data 64669.777778                       # average WriteReq mshr miss latency
system.cpu15.dcache.WriteReq_avg_mshr_miss_latency::total 64669.777778                       # average WriteReq mshr miss latency
system.cpu15.dcache.demand_avg_mshr_miss_latency::switch_cpus15.data 328903.159147                       # average overall mshr miss latency
system.cpu15.dcache.demand_avg_mshr_miss_latency::total 328903.159147                       # average overall mshr miss latency
system.cpu15.dcache.overall_avg_mshr_miss_latency::switch_cpus15.data 328903.159147                       # average overall mshr miss latency
system.cpu15.dcache.overall_avg_mshr_miss_latency::total 328903.159147                       # average overall mshr miss latency
system.cpu15.dcache.no_allocate_misses              0                       # Number of misses that were no-allocate

---------- End Simulation Statistics   ----------
