
---------- Begin Simulation Statistics ----------
sim_seconds                                  0.034292                       # Number of seconds simulated
sim_ticks                                 34292207253                       # Number of ticks simulated
final_tick                               605795130372                       # Number of ticks from beginning of simulation (restored from checkpoints and never reset)
sim_freq                                 1000000000000                       # Frequency of simulated ticks
host_inst_rate                                 264835                       # Simulator instruction rate (inst/s)
host_op_rate                                   339277                       # Simulator op (including micro ops) rate (op/s)
host_tick_rate                                1959549                       # Simulator tick rate (ticks/s)
host_mem_usage                               16928416                       # Number of bytes of host memory used
host_seconds                                 17500.05                       # Real time elapsed on the host
sim_insts                                  4634617080                       # Number of instructions simulated
sim_ops                                    5937366426                       # Number of ops (including micro ops) simulated
system.physmem.bytes_read::switch_cpus0.inst         2048                       # Number of bytes read from this memory
system.physmem.bytes_read::switch_cpus0.data      2162176                       # Number of bytes read from this memory
system.physmem.bytes_read::switch_cpus1.inst         1664                       # Number of bytes read from this memory
system.physmem.bytes_read::switch_cpus1.data      2896768                       # Number of bytes read from this memory
system.physmem.bytes_read::switch_cpus2.inst         1792                       # Number of bytes read from this memory
system.physmem.bytes_read::switch_cpus2.data       973312                       # Number of bytes read from this memory
system.physmem.bytes_read::switch_cpus3.inst         1664                       # Number of bytes read from this memory
system.physmem.bytes_read::switch_cpus3.data      1505408                       # Number of bytes read from this memory
system.physmem.bytes_read::total              7544832                       # Number of bytes read from this memory
system.physmem.bytes_inst_read::switch_cpus0.inst         2048                       # Number of instructions bytes read from this memory
system.physmem.bytes_inst_read::switch_cpus1.inst         1664                       # Number of instructions bytes read from this memory
system.physmem.bytes_inst_read::switch_cpus2.inst         1792                       # Number of instructions bytes read from this memory
system.physmem.bytes_inst_read::switch_cpus3.inst         1664                       # Number of instructions bytes read from this memory
system.physmem.bytes_inst_read::total            7168                       # Number of instructions bytes read from this memory
system.physmem.bytes_written::writebacks      2317696                       # Number of bytes written to this memory
system.physmem.bytes_written::total           2317696                       # Number of bytes written to this memory
system.physmem.num_reads::switch_cpus0.inst           16                       # Number of read requests responded to by this memory
system.physmem.num_reads::switch_cpus0.data        16892                       # Number of read requests responded to by this memory
system.physmem.num_reads::switch_cpus1.inst           13                       # Number of read requests responded to by this memory
system.physmem.num_reads::switch_cpus1.data        22631                       # Number of read requests responded to by this memory
system.physmem.num_reads::switch_cpus2.inst           14                       # Number of read requests responded to by this memory
system.physmem.num_reads::switch_cpus2.data         7604                       # Number of read requests responded to by this memory
system.physmem.num_reads::switch_cpus3.inst           13                       # Number of read requests responded to by this memory
system.physmem.num_reads::switch_cpus3.data        11761                       # Number of read requests responded to by this memory
system.physmem.num_reads::total                 58944                       # Number of read requests responded to by this memory
system.physmem.num_writes::writebacks           18107                       # Number of write requests responded to by this memory
system.physmem.num_writes::functional               0                       # Number of write requests responded to by this memory
system.physmem.num_writes::interrupt                0                       # Number of write requests responded to by this memory
system.physmem.num_writes::switch_cpus0.dtb.walker            0                       # Number of write requests responded to by this memory
system.physmem.num_writes::switch_cpus0.itb.walker            0                       # Number of write requests responded to by this memory
system.physmem.num_writes::switch_cpus0.inst            0                       # Number of write requests responded to by this memory
system.physmem.num_writes::switch_cpus0.data            0                       # Number of write requests responded to by this memory
system.physmem.num_writes::switch_cpus1.dtb.walker            0                       # Number of write requests responded to by this memory
system.physmem.num_writes::switch_cpus1.itb.walker            0                       # Number of write requests responded to by this memory
system.physmem.num_writes::switch_cpus1.inst            0                       # Number of write requests responded to by this memory
system.physmem.num_writes::switch_cpus1.data            0                       # Number of write requests responded to by this memory
system.physmem.num_writes::switch_cpus2.dtb.walker            0                       # Number of write requests responded to by this memory
system.physmem.num_writes::switch_cpus2.itb.walker            0                       # Number of write requests responded to by this memory
system.physmem.num_writes::switch_cpus2.inst            0                       # Number of write requests responded to by this memory
system.physmem.num_writes::switch_cpus2.data            0                       # Number of write requests responded to by this memory
system.physmem.num_writes::switch_cpus3.dtb.walker            0                       # Number of write requests responded to by this memory
system.physmem.num_writes::switch_cpus3.itb.walker            0                       # Number of write requests responded to by this memory
system.physmem.num_writes::switch_cpus3.inst            0                       # Number of write requests responded to by this memory
system.physmem.num_writes::switch_cpus3.data            0                       # Number of write requests responded to by this memory
system.physmem.num_writes::cpu0.dtb.walker            0                       # Number of write requests responded to by this memory
system.physmem.num_writes::cpu0.itb.walker            0                       # Number of write requests responded to by this memory
system.physmem.num_writes::cpu0.inst                0                       # Number of write requests responded to by this memory
system.physmem.num_writes::cpu0.data                0                       # Number of write requests responded to by this memory
system.physmem.num_writes::cpu1.dtb.walker            0                       # Number of write requests responded to by this memory
system.physmem.num_writes::cpu1.itb.walker            0                       # Number of write requests responded to by this memory
system.physmem.num_writes::cpu1.inst                0                       # Number of write requests responded to by this memory
system.physmem.num_writes::cpu1.data                0                       # Number of write requests responded to by this memory
system.physmem.num_writes::cpu2.dtb.walker            0                       # Number of write requests responded to by this memory
system.physmem.num_writes::cpu2.itb.walker            0                       # Number of write requests responded to by this memory
system.physmem.num_writes::cpu2.inst                0                       # Number of write requests responded to by this memory
system.physmem.num_writes::cpu2.data                0                       # Number of write requests responded to by this memory
system.physmem.num_writes::cpu3.dtb.walker            0                       # Number of write requests responded to by this memory
system.physmem.num_writes::cpu3.itb.walker            0                       # Number of write requests responded to by this memory
system.physmem.num_writes::cpu3.inst                0                       # Number of write requests responded to by this memory
system.physmem.num_writes::cpu3.data                0                       # Number of write requests responded to by this memory
system.physmem.num_writes::total                18107                       # Number of write requests responded to by this memory
system.physmem.bw_read::switch_cpus0.inst        59722                       # Total read bandwidth from this memory (bytes/s)
system.physmem.bw_read::switch_cpus0.data     63051526                       # Total read bandwidth from this memory (bytes/s)
system.physmem.bw_read::switch_cpus1.inst        48524                       # Total read bandwidth from this memory (bytes/s)
system.physmem.bw_read::switch_cpus1.data     84473069                       # Total read bandwidth from this memory (bytes/s)
system.physmem.bw_read::switch_cpus2.inst        52257                       # Total read bandwidth from this memory (bytes/s)
system.physmem.bw_read::switch_cpus2.data     28382892                       # Total read bandwidth from this memory (bytes/s)
system.physmem.bw_read::switch_cpus3.inst        48524                       # Total read bandwidth from this memory (bytes/s)
system.physmem.bw_read::switch_cpus3.data     43899420                       # Total read bandwidth from this memory (bytes/s)
system.physmem.bw_read::total               220015934                       # Total read bandwidth from this memory (bytes/s)
system.physmem.bw_inst_read::switch_cpus0.inst        59722                       # Instruction read bandwidth from this memory (bytes/s)
system.physmem.bw_inst_read::switch_cpus1.inst        48524                       # Instruction read bandwidth from this memory (bytes/s)
system.physmem.bw_inst_read::switch_cpus2.inst        52257                       # Instruction read bandwidth from this memory (bytes/s)
system.physmem.bw_inst_read::switch_cpus3.inst        48524                       # Instruction read bandwidth from this memory (bytes/s)
system.physmem.bw_inst_read::total             209027                       # Instruction read bandwidth from this memory (bytes/s)
system.physmem.bw_write::writebacks          67586667                       # Write bandwidth from this memory (bytes/s)
system.physmem.bw_write::total               67586667                       # Write bandwidth from this memory (bytes/s)
system.physmem.bw_total::writebacks          67586667                       # Total bandwidth to/from this memory (bytes/s)
system.physmem.bw_total::switch_cpus0.inst        59722                       # Total bandwidth to/from this memory (bytes/s)
system.physmem.bw_total::switch_cpus0.data     63051526                       # Total bandwidth to/from this memory (bytes/s)
system.physmem.bw_total::switch_cpus1.inst        48524                       # Total bandwidth to/from this memory (bytes/s)
system.physmem.bw_total::switch_cpus1.data     84473069                       # Total bandwidth to/from this memory (bytes/s)
system.physmem.bw_total::switch_cpus2.inst        52257                       # Total bandwidth to/from this memory (bytes/s)
system.physmem.bw_total::switch_cpus2.data     28382892                       # Total bandwidth to/from this memory (bytes/s)
system.physmem.bw_total::switch_cpus3.inst        48524                       # Total bandwidth to/from this memory (bytes/s)
system.physmem.bw_total::switch_cpus3.data     43899420                       # Total bandwidth to/from this memory (bytes/s)
system.physmem.bw_total::total              287602601                       # Total bandwidth to/from this memory (bytes/s)
system.switch_cpus0.dtb.inst_hits                   0                       # ITB inst hits
system.switch_cpus0.dtb.inst_misses                 0                       # ITB inst misses
system.switch_cpus0.dtb.read_hits                   0                       # DTB read hits
system.switch_cpus0.dtb.read_misses                 0                       # DTB read misses
system.switch_cpus0.dtb.write_hits                  0                       # DTB write hits
system.switch_cpus0.dtb.write_misses                0                       # DTB write misses
system.switch_cpus0.dtb.flush_tlb                   0                       # Number of times complete TLB was flushed
system.switch_cpus0.dtb.flush_tlb_mva               0                       # Number of times TLB was flushed by MVA
system.switch_cpus0.dtb.flush_tlb_mva_asid            0                       # Number of times TLB was flushed by MVA & ASID
system.switch_cpus0.dtb.flush_tlb_asid              0                       # Number of times TLB was flushed by ASID
system.switch_cpus0.dtb.flush_entries               0                       # Number of entries that have been flushed from TLB
system.switch_cpus0.dtb.align_faults                0                       # Number of TLB faults due to alignment restrictions
system.switch_cpus0.dtb.prefetch_faults             0                       # Number of TLB faults due to prefetch
system.switch_cpus0.dtb.domain_faults               0                       # Number of TLB faults due to domain restrictions
system.switch_cpus0.dtb.perms_faults                0                       # Number of TLB faults due to permissions restrictions
system.switch_cpus0.dtb.read_accesses               0                       # DTB read accesses
system.switch_cpus0.dtb.write_accesses              0                       # DTB write accesses
system.switch_cpus0.dtb.inst_accesses               0                       # ITB inst accesses
system.switch_cpus0.dtb.hits                        0                       # DTB hits
system.switch_cpus0.dtb.misses                      0                       # DTB misses
system.switch_cpus0.dtb.accesses                    0                       # DTB accesses
system.switch_cpus0.itb.inst_hits                   0                       # ITB inst hits
system.switch_cpus0.itb.inst_misses                 0                       # ITB inst misses
system.switch_cpus0.itb.read_hits                   0                       # DTB read hits
system.switch_cpus0.itb.read_misses                 0                       # DTB read misses
system.switch_cpus0.itb.write_hits                  0                       # DTB write hits
system.switch_cpus0.itb.write_misses                0                       # DTB write misses
system.switch_cpus0.itb.flush_tlb                   0                       # Number of times complete TLB was flushed
system.switch_cpus0.itb.flush_tlb_mva               0                       # Number of times TLB was flushed by MVA
system.switch_cpus0.itb.flush_tlb_mva_asid            0                       # Number of times TLB was flushed by MVA & ASID
system.switch_cpus0.itb.flush_tlb_asid              0                       # Number of times TLB was flushed by ASID
system.switch_cpus0.itb.flush_entries               0                       # Number of entries that have been flushed from TLB
system.switch_cpus0.itb.align_faults                0                       # Number of TLB faults due to alignment restrictions
system.switch_cpus0.itb.prefetch_faults             0                       # Number of TLB faults due to prefetch
system.switch_cpus0.itb.domain_faults               0                       # Number of TLB faults due to domain restrictions
system.switch_cpus0.itb.perms_faults                0                       # Number of TLB faults due to permissions restrictions
system.switch_cpus0.itb.read_accesses               0                       # DTB read accesses
system.switch_cpus0.itb.write_accesses              0                       # DTB write accesses
system.switch_cpus0.itb.inst_accesses               0                       # ITB inst accesses
system.switch_cpus0.itb.hits                        0                       # DTB hits
system.switch_cpus0.itb.misses                      0                       # DTB misses
system.switch_cpus0.itb.accesses                    0                       # DTB accesses
system.cpu0.workload.num_syscalls                   0                       # Number of system calls
system.switch_cpus0.numCycles                82235510                       # number of cpu cycles simulated
system.switch_cpus0.numWorkItemsStarted             0                       # number of work items this cpu started
system.switch_cpus0.numWorkItemsCompleted            0                       # number of work items this cpu completed
system.switch_cpus0.BPredUnit.lookups        28432842                       # Number of BP lookups
system.switch_cpus0.BPredUnit.condPredicted     24863718                       # Number of conditional branches predicted
system.switch_cpus0.BPredUnit.condIncorrect      1800862                       # Number of conditional branches incorrect
system.switch_cpus0.BPredUnit.BTBLookups     14217599                       # Number of BTB lookups
system.switch_cpus0.BPredUnit.BTBHits        13673093                       # Number of BTB hits
system.switch_cpus0.BPredUnit.BTBCorrect            0                       # Number of correct BTB predictions (this stat may not work properly.
system.switch_cpus0.BPredUnit.usedRAS         2043205                       # Number of times the RAS was used to get a target.
system.switch_cpus0.BPredUnit.RASInCorrect        56791                       # Number of incorrect RAS predictions.
system.switch_cpus0.fetch.icacheStallCycles     33526989                       # Number of cycles fetch is stalled on an Icache miss
system.switch_cpus0.fetch.Insts             158221663                       # Number of instructions fetch has processed
system.switch_cpus0.fetch.Branches           28432842                       # Number of branches that fetch encountered
system.switch_cpus0.fetch.predictedBranches     15716298                       # Number of branches that fetch has predicted taken
system.switch_cpus0.fetch.Cycles             32571054                       # Number of cycles fetch has run and was not squashing or blocked
system.switch_cpus0.fetch.SquashCycles        8850283                       # Number of cycles fetch has spent squashing
system.switch_cpus0.fetch.BlockedCycles       4394298                       # Number of cycles fetch has spent blocked
system.switch_cpus0.fetch.PendingTrapStallCycles           18                       # Number of stall cycles due to pending traps
system.switch_cpus0.fetch.CacheLines         16526145                       # Number of cache lines fetched
system.switch_cpus0.fetch.IcacheSquashes       713256                       # Number of outstanding Icache misses that were squashed
system.switch_cpus0.fetch.rateDist::samples     77531526                       # Number of instructions fetched each cycle (Total)
system.switch_cpus0.fetch.rateDist::mean     2.349323                       # Number of instructions fetched each cycle (Total)
system.switch_cpus0.fetch.rateDist::stdev     3.166559                       # Number of instructions fetched each cycle (Total)
system.switch_cpus0.fetch.rateDist::underflows            0      0.00%      0.00% # Number of instructions fetched each cycle (Total)
system.switch_cpus0.fetch.rateDist::0        44960472     57.99%     57.99% # Number of instructions fetched each cycle (Total)
system.switch_cpus0.fetch.rateDist::1         1613723      2.08%     60.07% # Number of instructions fetched each cycle (Total)
system.switch_cpus0.fetch.rateDist::2         2952077      3.81%     63.88% # Number of instructions fetched each cycle (Total)
system.switch_cpus0.fetch.rateDist::3         2766386      3.57%     67.45% # Number of instructions fetched each cycle (Total)
system.switch_cpus0.fetch.rateDist::4         4560073      5.88%     73.33% # Number of instructions fetched each cycle (Total)
system.switch_cpus0.fetch.rateDist::5         4745466      6.12%     79.45% # Number of instructions fetched each cycle (Total)
system.switch_cpus0.fetch.rateDist::6         1128514      1.46%     80.90% # Number of instructions fetched each cycle (Total)
system.switch_cpus0.fetch.rateDist::7          847649      1.09%     82.00% # Number of instructions fetched each cycle (Total)
system.switch_cpus0.fetch.rateDist::8        13957166     18.00%    100.00% # Number of instructions fetched each cycle (Total)
system.switch_cpus0.fetch.rateDist::overflows            0      0.00%    100.00% # Number of instructions fetched each cycle (Total)
system.switch_cpus0.fetch.rateDist::min_value            0                       # Number of instructions fetched each cycle (Total)
system.switch_cpus0.fetch.rateDist::max_value            8                       # Number of instructions fetched each cycle (Total)
system.switch_cpus0.fetch.rateDist::total     77531526                       # Number of instructions fetched each cycle (Total)
system.switch_cpus0.fetch.branchRate         0.345749                       # Number of branch fetches per cycle
system.switch_cpus0.fetch.rate               1.924007                       # Number of inst fetches per cycle
system.switch_cpus0.decode.IdleCycles        34588442                       # Number of cycles decode is idle
system.switch_cpus0.decode.BlockedCycles      4260465                       # Number of cycles decode is blocked
system.switch_cpus0.decode.RunCycles         31522802                       # Number of cycles decode is running
system.switch_cpus0.decode.UnblockCycles       125829                       # Number of cycles decode is unblocking
system.switch_cpus0.decode.SquashCycles       7033978                       # Number of cycles decode is squashing
system.switch_cpus0.decode.BranchResolved      3092096                       # Number of times decode resolved a branch
system.switch_cpus0.decode.BranchMispred         5203                       # Number of times decode detected a branch misprediction
system.switch_cpus0.decode.DecodedInsts     177036887                       # Number of instructions handled by decode
system.switch_cpus0.decode.SquashedInsts         1379                       # Number of squashed instructions handled by decode
system.switch_cpus0.rename.SquashCycles       7033978                       # Number of cycles rename is squashing
system.switch_cpus0.rename.IdleCycles        36045304                       # Number of cycles rename is idle
system.switch_cpus0.rename.BlockCycles        1776869                       # Number of cycles rename is blocking
system.switch_cpus0.rename.serializeStallCycles       457150                       # count of cycles rename stalled for serializing inst
system.switch_cpus0.rename.RunCycles         30181002                       # Number of cycles rename is running
system.switch_cpus0.rename.UnblockCycles      2037214                       # Number of cycles rename is unblocking
system.switch_cpus0.rename.RenamedInsts     172375727                       # Number of instructions processed by rename
system.switch_cpus0.rename.ROBFullEvents           26                       # Number of times rename has blocked due to ROB full
system.switch_cpus0.rename.IQFullEvents        690996                       # Number of times rename has blocked due to IQ full
system.switch_cpus0.rename.LSQFullEvents       833765                       # Number of times rename has blocked due to LSQ full
system.switch_cpus0.rename.RenamedOperands    228855614                       # Number of destination operands rename has renamed
system.switch_cpus0.rename.RenameLookups    784604162                       # Number of register rename lookups that rename has made
system.switch_cpus0.rename.int_rename_lookups    784604162                       # Number of integer rename lookups
system.switch_cpus0.rename.CommittedMaps    148896166                       # Number of HB maps that are committed
system.switch_cpus0.rename.UndoneMaps        79959333                       # Number of HB maps that are undone due to squashing
system.switch_cpus0.rename.serializingInsts        20289                       # count of serializing insts renamed
system.switch_cpus0.rename.tempSerializingInsts         9941                       # count of temporary serializing insts renamed
system.switch_cpus0.rename.skidInsts          5427284                       # count of insts added to the skid buffer
system.switch_cpus0.memDep0.insertedLoads     26520581                       # Number of loads inserted to the mem dependence unit.
system.switch_cpus0.memDep0.insertedStores      5762304                       # Number of stores inserted to the mem dependence unit.
system.switch_cpus0.memDep0.conflictingLoads        96912                       # Number of conflicting loads.
system.switch_cpus0.memDep0.conflictingStores      1893775                       # Number of conflicting stores.
system.switch_cpus0.iq.iqInstsAdded         163147515                       # Number of instructions added to the IQ (excludes non-spec)
system.switch_cpus0.iq.iqNonSpecInstsAdded        19863                       # Number of non-speculative instructions added to the IQ
system.switch_cpus0.iq.iqInstsIssued        137689052                       # Number of instructions issued
system.switch_cpus0.iq.iqSquashedInstsIssued       181868                       # Number of squashed instructions issued
system.switch_cpus0.iq.iqSquashedInstsExamined     48948461                       # Number of squashed instructions iterated over during squash; mainly for profiling
system.switch_cpus0.iq.iqSquashedOperandsExamined    134445233                       # Number of squashed operands that are examined and possibly removed from graph
system.switch_cpus0.iq.iqSquashedNonSpecRemoved           19                       # Number of squashed non-spec instructions that were removed
system.switch_cpus0.iq.issued_per_cycle::samples     77531526                       # Number of insts issued each cycle
system.switch_cpus0.iq.issued_per_cycle::mean     1.775911                       # Number of insts issued each cycle
system.switch_cpus0.iq.issued_per_cycle::stdev     1.839910                       # Number of insts issued each cycle
system.switch_cpus0.iq.issued_per_cycle::underflows            0      0.00%      0.00% # Number of insts issued each cycle
system.switch_cpus0.iq.issued_per_cycle::0     27143775     35.01%     35.01% # Number of insts issued each cycle
system.switch_cpus0.iq.issued_per_cycle::1     14417064     18.60%     53.61% # Number of insts issued each cycle
system.switch_cpus0.iq.issued_per_cycle::2     12517222     16.14%     69.75% # Number of insts issued each cycle
system.switch_cpus0.iq.issued_per_cycle::3      7669822      9.89%     79.64% # Number of insts issued each cycle
system.switch_cpus0.iq.issued_per_cycle::4      8035972     10.36%     90.01% # Number of insts issued each cycle
system.switch_cpus0.iq.issued_per_cycle::5      4721229      6.09%     96.10% # Number of insts issued each cycle
system.switch_cpus0.iq.issued_per_cycle::6      2088956      2.69%     98.79% # Number of insts issued each cycle
system.switch_cpus0.iq.issued_per_cycle::7       555579      0.72%     99.51% # Number of insts issued each cycle
system.switch_cpus0.iq.issued_per_cycle::8       381907      0.49%    100.00% # Number of insts issued each cycle
system.switch_cpus0.iq.issued_per_cycle::overflows            0      0.00%    100.00% # Number of insts issued each cycle
system.switch_cpus0.iq.issued_per_cycle::min_value            0                       # Number of insts issued each cycle
system.switch_cpus0.iq.issued_per_cycle::max_value            8                       # Number of insts issued each cycle
system.switch_cpus0.iq.issued_per_cycle::total     77531526                       # Number of insts issued each cycle
system.switch_cpus0.iq.fu_full::No_OpClass            0      0.00%      0.00% # attempts to use FU when none available
system.switch_cpus0.iq.fu_full::IntAlu         540861     66.13%     66.13% # attempts to use FU when none available
system.switch_cpus0.iq.fu_full::IntMult             0      0.00%     66.13% # attempts to use FU when none available
system.switch_cpus0.iq.fu_full::IntDiv              0      0.00%     66.13% # attempts to use FU when none available
system.switch_cpus0.iq.fu_full::FloatAdd            0      0.00%     66.13% # attempts to use FU when none available
system.switch_cpus0.iq.fu_full::FloatCmp            0      0.00%     66.13% # attempts to use FU when none available
system.switch_cpus0.iq.fu_full::FloatCvt            0      0.00%     66.13% # attempts to use FU when none available
system.switch_cpus0.iq.fu_full::FloatMult            0      0.00%     66.13% # attempts to use FU when none available
system.switch_cpus0.iq.fu_full::FloatDiv            0      0.00%     66.13% # attempts to use FU when none available
system.switch_cpus0.iq.fu_full::FloatSqrt            0      0.00%     66.13% # attempts to use FU when none available
system.switch_cpus0.iq.fu_full::SimdAdd             0      0.00%     66.13% # attempts to use FU when none available
system.switch_cpus0.iq.fu_full::SimdAddAcc            0      0.00%     66.13% # attempts to use FU when none available
system.switch_cpus0.iq.fu_full::SimdAlu             0      0.00%     66.13% # attempts to use FU when none available
system.switch_cpus0.iq.fu_full::SimdCmp             0      0.00%     66.13% # attempts to use FU when none available
system.switch_cpus0.iq.fu_full::SimdCvt             0      0.00%     66.13% # attempts to use FU when none available
system.switch_cpus0.iq.fu_full::SimdMisc            0      0.00%     66.13% # attempts to use FU when none available
system.switch_cpus0.iq.fu_full::SimdMult            0      0.00%     66.13% # attempts to use FU when none available
system.switch_cpus0.iq.fu_full::SimdMultAcc            0      0.00%     66.13% # attempts to use FU when none available
system.switch_cpus0.iq.fu_full::SimdShift            0      0.00%     66.13% # attempts to use FU when none available
system.switch_cpus0.iq.fu_full::SimdShiftAcc            0      0.00%     66.13% # attempts to use FU when none available
system.switch_cpus0.iq.fu_full::SimdSqrt            0      0.00%     66.13% # attempts to use FU when none available
system.switch_cpus0.iq.fu_full::SimdFloatAdd            0      0.00%     66.13% # attempts to use FU when none available
system.switch_cpus0.iq.fu_full::SimdFloatAlu            0      0.00%     66.13% # attempts to use FU when none available
system.switch_cpus0.iq.fu_full::SimdFloatCmp            0      0.00%     66.13% # attempts to use FU when none available
system.switch_cpus0.iq.fu_full::SimdFloatCvt            0      0.00%     66.13% # attempts to use FU when none available
system.switch_cpus0.iq.fu_full::SimdFloatDiv            0      0.00%     66.13% # attempts to use FU when none available
system.switch_cpus0.iq.fu_full::SimdFloatMisc            0      0.00%     66.13% # attempts to use FU when none available
system.switch_cpus0.iq.fu_full::SimdFloatMult            0      0.00%     66.13% # attempts to use FU when none available
system.switch_cpus0.iq.fu_full::SimdFloatMultAcc            0      0.00%     66.13% # attempts to use FU when none available
system.switch_cpus0.iq.fu_full::SimdFloatSqrt            0      0.00%     66.13% # attempts to use FU when none available
system.switch_cpus0.iq.fu_full::MemRead        176249     21.55%     87.68% # attempts to use FU when none available
system.switch_cpus0.iq.fu_full::MemWrite       100742     12.32%    100.00% # attempts to use FU when none available
system.switch_cpus0.iq.fu_full::IprAccess            0      0.00%    100.00% # attempts to use FU when none available
system.switch_cpus0.iq.fu_full::InstPrefetch            0      0.00%    100.00% # attempts to use FU when none available
system.switch_cpus0.iq.FU_type_0::No_OpClass            0      0.00%      0.00% # Type of FU issued
system.switch_cpus0.iq.FU_type_0::IntAlu    108003789     78.44%     78.44% # Type of FU issued
system.switch_cpus0.iq.FU_type_0::IntMult      1085496      0.79%     79.23% # Type of FU issued
system.switch_cpus0.iq.FU_type_0::IntDiv            0      0.00%     79.23% # Type of FU issued
system.switch_cpus0.iq.FU_type_0::FloatAdd            0      0.00%     79.23% # Type of FU issued
system.switch_cpus0.iq.FU_type_0::FloatCmp            0      0.00%     79.23% # Type of FU issued
system.switch_cpus0.iq.FU_type_0::FloatCvt            0      0.00%     79.23% # Type of FU issued
system.switch_cpus0.iq.FU_type_0::FloatMult            0      0.00%     79.23% # Type of FU issued
system.switch_cpus0.iq.FU_type_0::FloatDiv            0      0.00%     79.23% # Type of FU issued
system.switch_cpus0.iq.FU_type_0::FloatSqrt            0      0.00%     79.23% # Type of FU issued
system.switch_cpus0.iq.FU_type_0::SimdAdd            0      0.00%     79.23% # Type of FU issued
system.switch_cpus0.iq.FU_type_0::SimdAddAcc            0      0.00%     79.23% # Type of FU issued
system.switch_cpus0.iq.FU_type_0::SimdAlu            0      0.00%     79.23% # Type of FU issued
system.switch_cpus0.iq.FU_type_0::SimdCmp            0      0.00%     79.23% # Type of FU issued
system.switch_cpus0.iq.FU_type_0::SimdCvt            0      0.00%     79.23% # Type of FU issued
system.switch_cpus0.iq.FU_type_0::SimdMisc            0      0.00%     79.23% # Type of FU issued
system.switch_cpus0.iq.FU_type_0::SimdMult            0      0.00%     79.23% # Type of FU issued
system.switch_cpus0.iq.FU_type_0::SimdMultAcc            0      0.00%     79.23% # Type of FU issued
system.switch_cpus0.iq.FU_type_0::SimdShift            0      0.00%     79.23% # Type of FU issued
system.switch_cpus0.iq.FU_type_0::SimdShiftAcc            0      0.00%     79.23% # Type of FU issued
system.switch_cpus0.iq.FU_type_0::SimdSqrt            0      0.00%     79.23% # Type of FU issued
system.switch_cpus0.iq.FU_type_0::SimdFloatAdd            0      0.00%     79.23% # Type of FU issued
system.switch_cpus0.iq.FU_type_0::SimdFloatAlu            0      0.00%     79.23% # Type of FU issued
system.switch_cpus0.iq.FU_type_0::SimdFloatCmp            0      0.00%     79.23% # Type of FU issued
system.switch_cpus0.iq.FU_type_0::SimdFloatCvt            0      0.00%     79.23% # Type of FU issued
system.switch_cpus0.iq.FU_type_0::SimdFloatDiv            0      0.00%     79.23% # Type of FU issued
system.switch_cpus0.iq.FU_type_0::SimdFloatMisc         9921      0.01%     79.24% # Type of FU issued
system.switch_cpus0.iq.FU_type_0::SimdFloatMult            0      0.00%     79.24% # Type of FU issued
system.switch_cpus0.iq.FU_type_0::SimdFloatMultAcc            0      0.00%     79.24% # Type of FU issued
system.switch_cpus0.iq.FU_type_0::SimdFloatSqrt            0      0.00%     79.24% # Type of FU issued
system.switch_cpus0.iq.FU_type_0::MemRead     23693619     17.21%     96.44% # Type of FU issued
system.switch_cpus0.iq.FU_type_0::MemWrite      4896227      3.56%    100.00% # Type of FU issued
system.switch_cpus0.iq.FU_type_0::IprAccess            0      0.00%    100.00% # Type of FU issued
system.switch_cpus0.iq.FU_type_0::InstPrefetch            0      0.00%    100.00% # Type of FU issued
system.switch_cpus0.iq.FU_type_0::total     137689052                       # Type of FU issued
system.switch_cpus0.iq.rate                  1.674326                       # Inst issue rate
system.switch_cpus0.iq.fu_busy_cnt             817852                       # FU busy when requested
system.switch_cpus0.iq.fu_busy_rate          0.005940                       # FU busy rate (busy events/executed inst)
system.switch_cpus0.iq.int_inst_queue_reads    353909346                       # Number of integer instruction queue reads
system.switch_cpus0.iq.int_inst_queue_writes    212116264                       # Number of integer instruction queue writes
system.switch_cpus0.iq.int_inst_queue_wakeup_accesses    133200430                       # Number of integer instruction queue wakeup accesses
system.switch_cpus0.iq.fp_inst_queue_reads            0                       # Number of floating instruction queue reads
system.switch_cpus0.iq.fp_inst_queue_writes            0                       # Number of floating instruction queue writes
system.switch_cpus0.iq.fp_inst_queue_wakeup_accesses            0                       # Number of floating instruction queue wakeup accesses
system.switch_cpus0.iq.int_alu_accesses     138506904                       # Number of integer alu accesses
system.switch_cpus0.iq.fp_alu_accesses              0                       # Number of floating point alu accesses
system.switch_cpus0.iew.lsq.thread0.forwLoads       339675                       # Number of loads that had data forwarded from stores
system.switch_cpus0.iew.lsq.thread0.invAddrLoads            0                       # Number of loads ignored due to an invalid address
system.switch_cpus0.iew.lsq.thread0.squashedLoads      7590504                       # Number of loads squashed
system.switch_cpus0.iew.lsq.thread0.ignoredResponses          842                       # Number of memory responses ignored because the instruction is squashed
system.switch_cpus0.iew.lsq.thread0.memOrderViolation          425                       # Number of memory ordering violations
system.switch_cpus0.iew.lsq.thread0.squashedStores      1408946                       # Number of stores squashed
system.switch_cpus0.iew.lsq.thread0.invAddrSwpfs            0                       # Number of software prefetches ignored due to an invalid address
system.switch_cpus0.iew.lsq.thread0.blockedLoads            0                       # Number of blocked loads due to partial load-store forwarding
system.switch_cpus0.iew.lsq.thread0.rescheduledLoads            0                       # Number of loads that were rescheduled
system.switch_cpus0.iew.lsq.thread0.cacheBlocked            0                       # Number of times an access to memory failed due to the cache being blocked
system.switch_cpus0.iew.iewIdleCycles               0                       # Number of cycles IEW is idle
system.switch_cpus0.iew.iewSquashCycles       7033978                       # Number of cycles IEW is squashing
system.switch_cpus0.iew.iewBlockCycles        1154360                       # Number of cycles IEW is blocking
system.switch_cpus0.iew.iewUnblockCycles        61926                       # Number of cycles IEW is unblocking
system.switch_cpus0.iew.iewDispatchedInsts    163167381                       # Number of instructions dispatched to IQ
system.switch_cpus0.iew.iewDispSquashedInsts       189539                       # Number of squashed instructions skipped by dispatch
system.switch_cpus0.iew.iewDispLoadInsts     26520581                       # Number of dispatched load instructions
system.switch_cpus0.iew.iewDispStoreInsts      5762304                       # Number of dispatched store instructions
system.switch_cpus0.iew.iewDispNonSpecInsts         9941                       # Number of dispatched non-speculative instructions
system.switch_cpus0.iew.iewIQFullEvents         30360                       # Number of times the IQ has become full, causing a stall
system.switch_cpus0.iew.iewLSQFullEvents          238                       # Number of times the LSQ has become full, causing a stall
system.switch_cpus0.iew.memOrderViolationEvents          425                       # Number of memory order violations
system.switch_cpus0.iew.predictedTakenIncorrect       957846                       # Number of branches that were predicted taken incorrectly
system.switch_cpus0.iew.predictedNotTakenIncorrect      1063155                       # Number of branches that were predicted not taken incorrectly
system.switch_cpus0.iew.branchMispredicts      2021001                       # Number of branch mispredicts detected at execute
system.switch_cpus0.iew.iewExecutedInsts    135118593                       # Number of executed instructions
system.switch_cpus0.iew.iewExecLoadInsts     22775680                       # Number of load instructions executed
system.switch_cpus0.iew.iewExecSquashedInsts      2570455                       # Number of squashed instructions skipped in execute
system.switch_cpus0.iew.exec_swp                    0                       # number of swp insts executed
system.switch_cpus0.iew.exec_nop                    3                       # number of nop insts executed
system.switch_cpus0.iew.exec_refs            27552294                       # number of memory reference insts executed
system.switch_cpus0.iew.exec_branches        20418995                       # Number of branches executed
system.switch_cpus0.iew.exec_stores           4776614                       # Number of stores executed
system.switch_cpus0.iew.exec_rate            1.643069                       # Inst execution rate
system.switch_cpus0.iew.wb_sent             133349011                       # cumulative count of insts sent to commit
system.switch_cpus0.iew.wb_count            133200430                       # cumulative count of insts written-back
system.switch_cpus0.iew.wb_producers         81832566                       # num instructions producing a value
system.switch_cpus0.iew.wb_consumers        199736093                       # num instructions consuming a value
system.switch_cpus0.iew.wb_penalized                0                       # number of instrctions required to write to 'other' IQ
system.switch_cpus0.iew.wb_rate              1.619743                       # insts written-back per cycle
system.switch_cpus0.iew.wb_fanout            0.409703                       # average fanout of values written-back
system.switch_cpus0.iew.wb_penalized_rate            0                       # fraction of instructions written-back that wrote to 'other' IQ
system.switch_cpus0.commit.commitCommittedInsts    100000006                       # The number of committed instructions
system.switch_cpus0.commit.commitCommittedOps    113611589                       # The number of committed instructions
system.switch_cpus0.commit.commitSquashedInsts     49556384                       # The number of squashed insts skipped by commit
system.switch_cpus0.commit.commitNonSpecStalls        19844                       # The number of times commit has been forced to stall to communicate backwards
system.switch_cpus0.commit.branchMispredicts      1805619                       # The number of times a branch was mispredicted
system.switch_cpus0.commit.committed_per_cycle::samples     70497548                       # Number of insts commited each cycle
system.switch_cpus0.commit.committed_per_cycle::mean     1.611568                       # Number of insts commited each cycle
system.switch_cpus0.commit.committed_per_cycle::stdev     2.315007                       # Number of insts commited each cycle
system.switch_cpus0.commit.committed_per_cycle::underflows            0      0.00%      0.00% # Number of insts commited each cycle
system.switch_cpus0.commit.committed_per_cycle::0     32686048     46.36%     46.36% # Number of insts commited each cycle
system.switch_cpus0.commit.committed_per_cycle::1     14846956     21.06%     67.43% # Number of insts commited each cycle
system.switch_cpus0.commit.committed_per_cycle::2      8306414     11.78%     79.21% # Number of insts commited each cycle
system.switch_cpus0.commit.committed_per_cycle::3      2816030      3.99%     83.20% # Number of insts commited each cycle
system.switch_cpus0.commit.committed_per_cycle::4      2696622      3.83%     87.03% # Number of insts commited each cycle
system.switch_cpus0.commit.committed_per_cycle::5      1120514      1.59%     88.62% # Number of insts commited each cycle
system.switch_cpus0.commit.committed_per_cycle::6      3004802      4.26%     92.88% # Number of insts commited each cycle
system.switch_cpus0.commit.committed_per_cycle::7       875451      1.24%     94.12% # Number of insts commited each cycle
system.switch_cpus0.commit.committed_per_cycle::8      4144711      5.88%    100.00% # Number of insts commited each cycle
system.switch_cpus0.commit.committed_per_cycle::overflows            0      0.00%    100.00% # Number of insts commited each cycle
system.switch_cpus0.commit.committed_per_cycle::min_value            0                       # Number of insts commited each cycle
system.switch_cpus0.commit.committed_per_cycle::max_value            8                       # Number of insts commited each cycle
system.switch_cpus0.commit.committed_per_cycle::total     70497548                       # Number of insts commited each cycle
system.switch_cpus0.commit.committedInsts    100000006                       # Number of instructions committed
system.switch_cpus0.commit.committedOps     113611589                       # Number of ops (including micro ops) committed
system.switch_cpus0.commit.swp_count                0                       # Number of s/w prefetches committed
system.switch_cpus0.commit.refs              23283426                       # Number of memory references committed
system.switch_cpus0.commit.loads             18930071                       # Number of loads committed
system.switch_cpus0.commit.membars               9922                       # Number of memory barriers committed
system.switch_cpus0.commit.branches          17789106                       # Number of branches committed
system.switch_cpus0.commit.fp_insts                 0                       # Number of committed floating point instructions.
system.switch_cpus0.commit.int_insts         99179499                       # Number of committed integer instructions.
system.switch_cpus0.commit.function_calls      1536069                       # Number of function calls committed.
system.switch_cpus0.commit.bw_lim_events      4144711                       # number cycles where commit BW limit reached
system.switch_cpus0.commit.bw_limited               0                       # number of insts not committed due to BW limits
system.switch_cpus0.rob.rob_reads           229520810                       # The number of ROB reads
system.switch_cpus0.rob.rob_writes          333375518                       # The number of ROB writes
system.switch_cpus0.timesIdled                  33186                       # Number of times that the entire CPU went into an idle state and unscheduled itself
system.switch_cpus0.idleCycles                4703984                       # Total number of cycles that the CPU has spent unscheduled due to idling
system.switch_cpus0.committedInsts          100000006                       # Number of Instructions Simulated
system.switch_cpus0.committedOps            113611589                       # Number of Ops (including micro ops) Simulated
system.switch_cpus0.committedInsts_total    100000006                       # Number of Instructions Simulated
system.switch_cpus0.cpi                      0.822355                       # CPI: Cycles Per Instruction
system.switch_cpus0.cpi_total                0.822355                       # CPI: Total CPI of All Threads
system.switch_cpus0.ipc                      1.216020                       # IPC: Instructions Per Cycle
system.switch_cpus0.ipc_total                1.216020                       # IPC: Total IPC of All Threads
system.switch_cpus0.int_regfile_reads       625023974                       # number of integer regfile reads
system.switch_cpus0.int_regfile_writes      174591901                       # number of integer regfile writes
system.switch_cpus0.misc_regfile_reads      182460401                       # number of misc regfile reads
system.switch_cpus0.misc_regfile_writes         19844                       # number of misc regfile writes
system.switch_cpus1.dtb.inst_hits                   0                       # ITB inst hits
system.switch_cpus1.dtb.inst_misses                 0                       # ITB inst misses
system.switch_cpus1.dtb.read_hits                   0                       # DTB read hits
system.switch_cpus1.dtb.read_misses                 0                       # DTB read misses
system.switch_cpus1.dtb.write_hits                  0                       # DTB write hits
system.switch_cpus1.dtb.write_misses                0                       # DTB write misses
system.switch_cpus1.dtb.flush_tlb                   0                       # Number of times complete TLB was flushed
system.switch_cpus1.dtb.flush_tlb_mva               0                       # Number of times TLB was flushed by MVA
system.switch_cpus1.dtb.flush_tlb_mva_asid            0                       # Number of times TLB was flushed by MVA & ASID
system.switch_cpus1.dtb.flush_tlb_asid              0                       # Number of times TLB was flushed by ASID
system.switch_cpus1.dtb.flush_entries               0                       # Number of entries that have been flushed from TLB
system.switch_cpus1.dtb.align_faults                0                       # Number of TLB faults due to alignment restrictions
system.switch_cpus1.dtb.prefetch_faults             0                       # Number of TLB faults due to prefetch
system.switch_cpus1.dtb.domain_faults               0                       # Number of TLB faults due to domain restrictions
system.switch_cpus1.dtb.perms_faults                0                       # Number of TLB faults due to permissions restrictions
system.switch_cpus1.dtb.read_accesses               0                       # DTB read accesses
system.switch_cpus1.dtb.write_accesses              0                       # DTB write accesses
system.switch_cpus1.dtb.inst_accesses               0                       # ITB inst accesses
system.switch_cpus1.dtb.hits                        0                       # DTB hits
system.switch_cpus1.dtb.misses                      0                       # DTB misses
system.switch_cpus1.dtb.accesses                    0                       # DTB accesses
system.switch_cpus1.itb.inst_hits                   0                       # ITB inst hits
system.switch_cpus1.itb.inst_misses                 0                       # ITB inst misses
system.switch_cpus1.itb.read_hits                   0                       # DTB read hits
system.switch_cpus1.itb.read_misses                 0                       # DTB read misses
system.switch_cpus1.itb.write_hits                  0                       # DTB write hits
system.switch_cpus1.itb.write_misses                0                       # DTB write misses
system.switch_cpus1.itb.flush_tlb                   0                       # Number of times complete TLB was flushed
system.switch_cpus1.itb.flush_tlb_mva               0                       # Number of times TLB was flushed by MVA
system.switch_cpus1.itb.flush_tlb_mva_asid            0                       # Number of times TLB was flushed by MVA & ASID
system.switch_cpus1.itb.flush_tlb_asid              0                       # Number of times TLB was flushed by ASID
system.switch_cpus1.itb.flush_entries               0                       # Number of entries that have been flushed from TLB
system.switch_cpus1.itb.align_faults                0                       # Number of TLB faults due to alignment restrictions
system.switch_cpus1.itb.prefetch_faults             0                       # Number of TLB faults due to prefetch
system.switch_cpus1.itb.domain_faults               0                       # Number of TLB faults due to domain restrictions
system.switch_cpus1.itb.perms_faults                0                       # Number of TLB faults due to permissions restrictions
system.switch_cpus1.itb.read_accesses               0                       # DTB read accesses
system.switch_cpus1.itb.write_accesses              0                       # DTB write accesses
system.switch_cpus1.itb.inst_accesses               0                       # ITB inst accesses
system.switch_cpus1.itb.hits                        0                       # DTB hits
system.switch_cpus1.itb.misses                      0                       # DTB misses
system.switch_cpus1.itb.accesses                    0                       # DTB accesses
system.cpu1.workload.num_syscalls                   0                       # Number of system calls
system.switch_cpus1.numCycles                82235510                       # number of cpu cycles simulated
system.switch_cpus1.numWorkItemsStarted             0                       # number of work items this cpu started
system.switch_cpus1.numWorkItemsCompleted            0                       # number of work items this cpu completed
system.switch_cpus1.BPredUnit.lookups        27748683                       # Number of BP lookups
system.switch_cpus1.BPredUnit.condPredicted     22578226                       # Number of conditional branches predicted
system.switch_cpus1.BPredUnit.condIncorrect      1892805                       # Number of conditional branches incorrect
system.switch_cpus1.BPredUnit.BTBLookups     11650644                       # Number of BTB lookups
system.switch_cpus1.BPredUnit.BTBHits        10815868                       # Number of BTB hits
system.switch_cpus1.BPredUnit.BTBCorrect            0                       # Number of correct BTB predictions (this stat may not work properly.
system.switch_cpus1.BPredUnit.usedRAS         2926956                       # Number of times the RAS was used to get a target.
system.switch_cpus1.BPredUnit.RASInCorrect        80279                       # Number of incorrect RAS predictions.
system.switch_cpus1.fetch.icacheStallCycles     27843381                       # Number of cycles fetch is stalled on an Icache miss
system.switch_cpus1.fetch.Insts             153964818                       # Number of instructions fetch has processed
system.switch_cpus1.fetch.Branches           27748683                       # Number of branches that fetch encountered
system.switch_cpus1.fetch.predictedBranches     13742824                       # Number of branches that fetch has predicted taken
system.switch_cpus1.fetch.Cycles             33857886                       # Number of cycles fetch has run and was not squashing or blocked
system.switch_cpus1.fetch.SquashCycles       10177480                       # Number of cycles fetch has spent squashing
system.switch_cpus1.fetch.BlockedCycles       7278798                       # Number of cycles fetch has spent blocked
system.switch_cpus1.fetch.PendingTrapStallCycles           12                       # Number of stall cycles due to pending traps
system.switch_cpus1.fetch.CacheLines         13622904                       # Number of cache lines fetched
system.switch_cpus1.fetch.IcacheSquashes       797501                       # Number of outstanding Icache misses that were squashed
system.switch_cpus1.fetch.rateDist::samples     77222107                       # Number of instructions fetched each cycle (Total)
system.switch_cpus1.fetch.rateDist::mean     2.462489                       # Number of instructions fetched each cycle (Total)
system.switch_cpus1.fetch.rateDist::stdev     3.291058                       # Number of instructions fetched each cycle (Total)
system.switch_cpus1.fetch.rateDist::underflows            0      0.00%      0.00% # Number of instructions fetched each cycle (Total)
system.switch_cpus1.fetch.rateDist::0        43364221     56.16%     56.16% # Number of instructions fetched each cycle (Total)
system.switch_cpus1.fetch.rateDist::1         2974959      3.85%     60.01% # Number of instructions fetched each cycle (Total)
system.switch_cpus1.fetch.rateDist::2         2417851      3.13%     63.14% # Number of instructions fetched each cycle (Total)
system.switch_cpus1.fetch.rateDist::3         5837412      7.56%     70.70% # Number of instructions fetched each cycle (Total)
system.switch_cpus1.fetch.rateDist::4         1579883      2.05%     72.74% # Number of instructions fetched each cycle (Total)
system.switch_cpus1.fetch.rateDist::5         2030629      2.63%     75.37% # Number of instructions fetched each cycle (Total)
system.switch_cpus1.fetch.rateDist::6         1474394      1.91%     77.28% # Number of instructions fetched each cycle (Total)
system.switch_cpus1.fetch.rateDist::7          825381      1.07%     78.35% # Number of instructions fetched each cycle (Total)
system.switch_cpus1.fetch.rateDist::8        16717377     21.65%    100.00% # Number of instructions fetched each cycle (Total)
system.switch_cpus1.fetch.rateDist::overflows            0      0.00%    100.00% # Number of instructions fetched each cycle (Total)
system.switch_cpus1.fetch.rateDist::min_value            0                       # Number of instructions fetched each cycle (Total)
system.switch_cpus1.fetch.rateDist::max_value            8                       # Number of instructions fetched each cycle (Total)
system.switch_cpus1.fetch.rateDist::total     77222107                       # Number of instructions fetched each cycle (Total)
system.switch_cpus1.fetch.branchRate         0.337429                       # Number of branch fetches per cycle
system.switch_cpus1.fetch.rate               1.872243                       # Number of inst fetches per cycle
system.switch_cpus1.decode.IdleCycles        29125025                       # Number of cycles decode is idle
system.switch_cpus1.decode.BlockedCycles      7109421                       # Number of cycles decode is blocked
system.switch_cpus1.decode.RunCycles         32559312                       # Number of cycles decode is running
system.switch_cpus1.decode.UnblockCycles       223582                       # Number of cycles decode is unblocking
system.switch_cpus1.decode.SquashCycles       8204762                       # Number of cycles decode is squashing
system.switch_cpus1.decode.BranchResolved      4723063                       # Number of times decode resolved a branch
system.switch_cpus1.decode.BranchMispred        37573                       # Number of times decode detected a branch misprediction
system.switch_cpus1.decode.DecodedInsts     184048328                       # Number of instructions handled by decode
system.switch_cpus1.decode.SquashedInsts        71889                       # Number of squashed instructions handled by decode
system.switch_cpus1.rename.SquashCycles       8204762                       # Number of cycles rename is squashing
system.switch_cpus1.rename.IdleCycles        31253156                       # Number of cycles rename is idle
system.switch_cpus1.rename.BlockCycles        1427525                       # Number of cycles rename is blocking
system.switch_cpus1.rename.serializeStallCycles      2520257                       # count of cycles rename stalled for serializing inst
system.switch_cpus1.rename.RunCycles         30603065                       # Number of cycles rename is running
system.switch_cpus1.rename.UnblockCycles      3213337                       # Number of cycles rename is unblocking
system.switch_cpus1.rename.RenamedInsts     177589566                       # Number of instructions processed by rename
system.switch_cpus1.rename.ROBFullEvents        33134                       # Number of times rename has blocked due to ROB full
system.switch_cpus1.rename.IQFullEvents       1333032                       # Number of times rename has blocked due to IQ full
system.switch_cpus1.rename.LSQFullEvents       995924                       # Number of times rename has blocked due to LSQ full
system.switch_cpus1.rename.FullRegisterEvents         2907                       # Number of times there has been no free registers
system.switch_cpus1.rename.RenamedOperands    248680962                       # Number of destination operands rename has renamed
system.switch_cpus1.rename.RenameLookups    829075945                       # Number of register rename lookups that rename has made
system.switch_cpus1.rename.int_rename_lookups    829075945                       # Number of integer rename lookups
system.switch_cpus1.rename.CommittedMaps    152339410                       # Number of HB maps that are committed
system.switch_cpus1.rename.UndoneMaps        96341505                       # Number of HB maps that are undone due to squashing
system.switch_cpus1.rename.serializingInsts        36783                       # count of serializing insts renamed
system.switch_cpus1.rename.tempSerializingInsts        20849                       # count of temporary serializing insts renamed
system.switch_cpus1.rename.skidInsts          8808386                       # count of insts added to the skid buffer
system.switch_cpus1.memDep0.insertedLoads     16558532                       # Number of loads inserted to the mem dependence unit.
system.switch_cpus1.memDep0.insertedStores      8429065                       # Number of stores inserted to the mem dependence unit.
system.switch_cpus1.memDep0.conflictingLoads       132423                       # Number of conflicting loads.
system.switch_cpus1.memDep0.conflictingStores      2630191                       # Number of conflicting stores.
system.switch_cpus1.iq.iqInstsAdded         167898929                       # Number of instructions added to the IQ (excludes non-spec)
system.switch_cpus1.iq.iqNonSpecInstsAdded        35463                       # Number of non-speculative instructions added to the IQ
system.switch_cpus1.iq.iqInstsIssued        133366458                       # Number of instructions issued
system.switch_cpus1.iq.iqSquashedInstsIssued       263002                       # Number of squashed instructions issued
system.switch_cpus1.iq.iqSquashedInstsExamined     58027307                       # Number of squashed instructions iterated over during squash; mainly for profiling
system.switch_cpus1.iq.iqSquashedOperandsExamined    177181606                       # Number of squashed operands that are examined and possibly removed from graph
system.switch_cpus1.iq.iqSquashedNonSpecRemoved         5955                       # Number of squashed non-spec instructions that were removed
system.switch_cpus1.iq.issued_per_cycle::samples     77222107                       # Number of insts issued each cycle
system.switch_cpus1.iq.issued_per_cycle::mean     1.727050                       # Number of insts issued each cycle
system.switch_cpus1.iq.issued_per_cycle::stdev     1.883947                       # Number of insts issued each cycle
system.switch_cpus1.iq.issued_per_cycle::underflows            0      0.00%      0.00% # Number of insts issued each cycle
system.switch_cpus1.iq.issued_per_cycle::0     27769725     35.96%     35.96% # Number of insts issued each cycle
system.switch_cpus1.iq.issued_per_cycle::1     16355762     21.18%     57.14% # Number of insts issued each cycle
system.switch_cpus1.iq.issued_per_cycle::2     10651406     13.79%     70.93% # Number of insts issued each cycle
system.switch_cpus1.iq.issued_per_cycle::3      7903027     10.23%     81.17% # Number of insts issued each cycle
system.switch_cpus1.iq.issued_per_cycle::4      6798223      8.80%     89.97% # Number of insts issued each cycle
system.switch_cpus1.iq.issued_per_cycle::5      3515062      4.55%     94.52% # Number of insts issued each cycle
system.switch_cpus1.iq.issued_per_cycle::6      3017176      3.91%     98.43% # Number of insts issued each cycle
system.switch_cpus1.iq.issued_per_cycle::7       566263      0.73%     99.16% # Number of insts issued each cycle
system.switch_cpus1.iq.issued_per_cycle::8       645463      0.84%    100.00% # Number of insts issued each cycle
system.switch_cpus1.iq.issued_per_cycle::overflows            0      0.00%    100.00% # Number of insts issued each cycle
system.switch_cpus1.iq.issued_per_cycle::min_value            0                       # Number of insts issued each cycle
system.switch_cpus1.iq.issued_per_cycle::max_value            8                       # Number of insts issued each cycle
system.switch_cpus1.iq.issued_per_cycle::total     77222107                       # Number of insts issued each cycle
system.switch_cpus1.iq.fu_full::No_OpClass            0      0.00%      0.00% # attempts to use FU when none available
system.switch_cpus1.iq.fu_full::IntAlu         781407     71.19%     71.19% # attempts to use FU when none available
system.switch_cpus1.iq.fu_full::IntMult             5      0.00%     71.19% # attempts to use FU when none available
system.switch_cpus1.iq.fu_full::IntDiv              0      0.00%     71.19% # attempts to use FU when none available
system.switch_cpus1.iq.fu_full::FloatAdd            0      0.00%     71.19% # attempts to use FU when none available
system.switch_cpus1.iq.fu_full::FloatCmp            0      0.00%     71.19% # attempts to use FU when none available
system.switch_cpus1.iq.fu_full::FloatCvt            0      0.00%     71.19% # attempts to use FU when none available
system.switch_cpus1.iq.fu_full::FloatMult            0      0.00%     71.19% # attempts to use FU when none available
system.switch_cpus1.iq.fu_full::FloatDiv            0      0.00%     71.19% # attempts to use FU when none available
system.switch_cpus1.iq.fu_full::FloatSqrt            0      0.00%     71.19% # attempts to use FU when none available
system.switch_cpus1.iq.fu_full::SimdAdd             0      0.00%     71.19% # attempts to use FU when none available
system.switch_cpus1.iq.fu_full::SimdAddAcc            0      0.00%     71.19% # attempts to use FU when none available
system.switch_cpus1.iq.fu_full::SimdAlu             0      0.00%     71.19% # attempts to use FU when none available
system.switch_cpus1.iq.fu_full::SimdCmp             0      0.00%     71.19% # attempts to use FU when none available
system.switch_cpus1.iq.fu_full::SimdCvt             0      0.00%     71.19% # attempts to use FU when none available
system.switch_cpus1.iq.fu_full::SimdMisc            0      0.00%     71.19% # attempts to use FU when none available
system.switch_cpus1.iq.fu_full::SimdMult            0      0.00%     71.19% # attempts to use FU when none available
system.switch_cpus1.iq.fu_full::SimdMultAcc            0      0.00%     71.19% # attempts to use FU when none available
system.switch_cpus1.iq.fu_full::SimdShift            0      0.00%     71.19% # attempts to use FU when none available
system.switch_cpus1.iq.fu_full::SimdShiftAcc            0      0.00%     71.19% # attempts to use FU when none available
system.switch_cpus1.iq.fu_full::SimdSqrt            0      0.00%     71.19% # attempts to use FU when none available
system.switch_cpus1.iq.fu_full::SimdFloatAdd            0      0.00%     71.19% # attempts to use FU when none available
system.switch_cpus1.iq.fu_full::SimdFloatAlu            0      0.00%     71.19% # attempts to use FU when none available
system.switch_cpus1.iq.fu_full::SimdFloatCmp            0      0.00%     71.19% # attempts to use FU when none available
system.switch_cpus1.iq.fu_full::SimdFloatCvt            0      0.00%     71.19% # attempts to use FU when none available
system.switch_cpus1.iq.fu_full::SimdFloatDiv            0      0.00%     71.19% # attempts to use FU when none available
system.switch_cpus1.iq.fu_full::SimdFloatMisc            0      0.00%     71.19% # attempts to use FU when none available
system.switch_cpus1.iq.fu_full::SimdFloatMult            0      0.00%     71.19% # attempts to use FU when none available
system.switch_cpus1.iq.fu_full::SimdFloatMultAcc            0      0.00%     71.19% # attempts to use FU when none available
system.switch_cpus1.iq.fu_full::SimdFloatSqrt            0      0.00%     71.19% # attempts to use FU when none available
system.switch_cpus1.iq.fu_full::MemRead        157896     14.39%     85.58% # attempts to use FU when none available
system.switch_cpus1.iq.fu_full::MemWrite       158291     14.42%    100.00% # attempts to use FU when none available
system.switch_cpus1.iq.fu_full::IprAccess            0      0.00%    100.00% # attempts to use FU when none available
system.switch_cpus1.iq.fu_full::InstPrefetch            0      0.00%    100.00% # attempts to use FU when none available
system.switch_cpus1.iq.FU_type_0::No_OpClass            0      0.00%      0.00% # Type of FU issued
system.switch_cpus1.iq.FU_type_0::IntAlu    111115191     83.32%     83.32% # Type of FU issued
system.switch_cpus1.iq.FU_type_0::IntMult      1899047      1.42%     84.74% # Type of FU issued
system.switch_cpus1.iq.FU_type_0::IntDiv            0      0.00%     84.74% # Type of FU issued
system.switch_cpus1.iq.FU_type_0::FloatAdd            0      0.00%     84.74% # Type of FU issued
system.switch_cpus1.iq.FU_type_0::FloatCmp            0      0.00%     84.74% # Type of FU issued
system.switch_cpus1.iq.FU_type_0::FloatCvt            0      0.00%     84.74% # Type of FU issued
system.switch_cpus1.iq.FU_type_0::FloatMult            0      0.00%     84.74% # Type of FU issued
system.switch_cpus1.iq.FU_type_0::FloatDiv            0      0.00%     84.74% # Type of FU issued
system.switch_cpus1.iq.FU_type_0::FloatSqrt            0      0.00%     84.74% # Type of FU issued
system.switch_cpus1.iq.FU_type_0::SimdAdd            0      0.00%     84.74% # Type of FU issued
system.switch_cpus1.iq.FU_type_0::SimdAddAcc            0      0.00%     84.74% # Type of FU issued
system.switch_cpus1.iq.FU_type_0::SimdAlu            0      0.00%     84.74% # Type of FU issued
system.switch_cpus1.iq.FU_type_0::SimdCmp            0      0.00%     84.74% # Type of FU issued
system.switch_cpus1.iq.FU_type_0::SimdCvt            0      0.00%     84.74% # Type of FU issued
system.switch_cpus1.iq.FU_type_0::SimdMisc            0      0.00%     84.74% # Type of FU issued
system.switch_cpus1.iq.FU_type_0::SimdMult            0      0.00%     84.74% # Type of FU issued
system.switch_cpus1.iq.FU_type_0::SimdMultAcc            0      0.00%     84.74% # Type of FU issued
system.switch_cpus1.iq.FU_type_0::SimdShift            0      0.00%     84.74% # Type of FU issued
system.switch_cpus1.iq.FU_type_0::SimdShiftAcc            0      0.00%     84.74% # Type of FU issued
system.switch_cpus1.iq.FU_type_0::SimdSqrt            0      0.00%     84.74% # Type of FU issued
system.switch_cpus1.iq.FU_type_0::SimdFloatAdd            0      0.00%     84.74% # Type of FU issued
system.switch_cpus1.iq.FU_type_0::SimdFloatAlu            0      0.00%     84.74% # Type of FU issued
system.switch_cpus1.iq.FU_type_0::SimdFloatCmp            0      0.00%     84.74% # Type of FU issued
system.switch_cpus1.iq.FU_type_0::SimdFloatCvt            0      0.00%     84.74% # Type of FU issued
system.switch_cpus1.iq.FU_type_0::SimdFloatDiv            0      0.00%     84.74% # Type of FU issued
system.switch_cpus1.iq.FU_type_0::SimdFloatMisc        14754      0.01%     84.75% # Type of FU issued
system.switch_cpus1.iq.FU_type_0::SimdFloatMult            0      0.00%     84.75% # Type of FU issued
system.switch_cpus1.iq.FU_type_0::SimdFloatMultAcc            0      0.00%     84.75% # Type of FU issued
system.switch_cpus1.iq.FU_type_0::SimdFloatSqrt            0      0.00%     84.75% # Type of FU issued
system.switch_cpus1.iq.FU_type_0::MemRead     13245358      9.93%     94.68% # Type of FU issued
system.switch_cpus1.iq.FU_type_0::MemWrite      7092108      5.32%    100.00% # Type of FU issued
system.switch_cpus1.iq.FU_type_0::IprAccess            0      0.00%    100.00% # Type of FU issued
system.switch_cpus1.iq.FU_type_0::InstPrefetch            0      0.00%    100.00% # Type of FU issued
system.switch_cpus1.iq.FU_type_0::total     133366458                       # Type of FU issued
system.switch_cpus1.iq.rate                  1.621762                       # Inst issue rate
system.switch_cpus1.iq.fu_busy_cnt            1097599                       # FU busy when requested
system.switch_cpus1.iq.fu_busy_rate          0.008230                       # FU busy rate (busy events/executed inst)
system.switch_cpus1.iq.int_inst_queue_reads    345315621                       # Number of integer instruction queue reads
system.switch_cpus1.iq.int_inst_queue_writes    225962264                       # Number of integer instruction queue writes
system.switch_cpus1.iq.int_inst_queue_wakeup_accesses    129975406                       # Number of integer instruction queue wakeup accesses
system.switch_cpus1.iq.fp_inst_queue_reads            0                       # Number of floating instruction queue reads
system.switch_cpus1.iq.fp_inst_queue_writes            0                       # Number of floating instruction queue writes
system.switch_cpus1.iq.fp_inst_queue_wakeup_accesses            0                       # Number of floating instruction queue wakeup accesses
system.switch_cpus1.iq.int_alu_accesses     134464057                       # Number of integer alu accesses
system.switch_cpus1.iq.fp_alu_accesses              0                       # Number of floating point alu accesses
system.switch_cpus1.iew.lsq.thread0.forwLoads       505285                       # Number of loads that had data forwarded from stores
system.switch_cpus1.iew.lsq.thread0.invAddrLoads            0                       # Number of loads ignored due to an invalid address
system.switch_cpus1.iew.lsq.thread0.squashedLoads      6533659                       # Number of loads squashed
system.switch_cpus1.iew.lsq.thread0.ignoredResponses         2715                       # Number of memory responses ignored because the instruction is squashed
system.switch_cpus1.iew.lsq.thread0.memOrderViolation          567                       # Number of memory ordering violations
system.switch_cpus1.iew.lsq.thread0.squashedStores      2159771                       # Number of stores squashed
system.switch_cpus1.iew.lsq.thread0.invAddrSwpfs            0                       # Number of software prefetches ignored due to an invalid address
system.switch_cpus1.iew.lsq.thread0.blockedLoads            0                       # Number of blocked loads due to partial load-store forwarding
system.switch_cpus1.iew.lsq.thread0.rescheduledLoads            0                       # Number of loads that were rescheduled
system.switch_cpus1.iew.lsq.thread0.cacheBlocked            0                       # Number of times an access to memory failed due to the cache being blocked
system.switch_cpus1.iew.iewIdleCycles               0                       # Number of cycles IEW is idle
system.switch_cpus1.iew.iewSquashCycles       8204762                       # Number of cycles IEW is squashing
system.switch_cpus1.iew.iewBlockCycles         602334                       # Number of cycles IEW is blocking
system.switch_cpus1.iew.iewUnblockCycles        74151                       # Number of cycles IEW is unblocking
system.switch_cpus1.iew.iewDispatchedInsts    167934393                       # Number of instructions dispatched to IQ
system.switch_cpus1.iew.iewDispSquashedInsts       417925                       # Number of squashed instructions skipped by dispatch
system.switch_cpus1.iew.iewDispLoadInsts     16558532                       # Number of dispatched load instructions
system.switch_cpus1.iew.iewDispStoreInsts      8429065                       # Number of dispatched store instructions
system.switch_cpus1.iew.iewDispNonSpecInsts        20709                       # Number of dispatched non-speculative instructions
system.switch_cpus1.iew.iewIQFullEvents         66396                       # Number of times the IQ has become full, causing a stall
system.switch_cpus1.iew.iewLSQFullEvents            0                       # Number of times the LSQ has become full, causing a stall
system.switch_cpus1.iew.memOrderViolationEvents          567                       # Number of memory order violations
system.switch_cpus1.iew.predictedTakenIncorrect      1132218                       # Number of branches that were predicted taken incorrectly
system.switch_cpus1.iew.predictedNotTakenIncorrect      1064007                       # Number of branches that were predicted not taken incorrectly
system.switch_cpus1.iew.branchMispredicts      2196225                       # Number of branch mispredicts detected at execute
system.switch_cpus1.iew.iewExecutedInsts    131258083                       # Number of executed instructions
system.switch_cpus1.iew.iewExecLoadInsts     12427803                       # Number of load instructions executed
system.switch_cpus1.iew.iewExecSquashedInsts      2108372                       # Number of squashed instructions skipped in execute
system.switch_cpus1.iew.exec_swp                    0                       # number of swp insts executed
system.switch_cpus1.iew.exec_nop                    1                       # number of nop insts executed
system.switch_cpus1.iew.exec_refs            19336056                       # number of memory reference insts executed
system.switch_cpus1.iew.exec_branches        18514073                       # Number of branches executed
system.switch_cpus1.iew.exec_stores           6908253                       # Number of stores executed
system.switch_cpus1.iew.exec_rate            1.596124                       # Inst execution rate
system.switch_cpus1.iew.wb_sent             130062341                       # cumulative count of insts sent to commit
system.switch_cpus1.iew.wb_count            129975406                       # cumulative count of insts written-back
system.switch_cpus1.iew.wb_producers         84720634                       # num instructions producing a value
system.switch_cpus1.iew.wb_consumers        239145866                       # num instructions consuming a value
system.switch_cpus1.iew.wb_penalized                0                       # number of instrctions required to write to 'other' IQ
system.switch_cpus1.iew.wb_rate              1.580527                       # insts written-back per cycle
system.switch_cpus1.iew.wb_fanout            0.354263                       # average fanout of values written-back
system.switch_cpus1.iew.wb_penalized_rate            0                       # fraction of instructions written-back that wrote to 'other' IQ
system.switch_cpus1.commit.commitCommittedInsts     89243557                       # The number of committed instructions
system.switch_cpus1.commit.commitCommittedOps    109598108                       # The number of committed instructions
system.switch_cpus1.commit.commitSquashedInsts     58337187                       # The number of squashed insts skipped by commit
system.switch_cpus1.commit.commitNonSpecStalls        29508                       # The number of times commit has been forced to stall to communicate backwards
system.switch_cpus1.commit.branchMispredicts      1897824                       # The number of times a branch was mispredicted
[...]
system.cpu3.icache.ReadReq_avg_miss_latency::total 154684.190476                       # average ReadReq miss latency
system.cpu3.icache.demand_avg_miss_latency::switch_cpus3.inst 154684.190476                       # average overall miss latency
system.cpu3.icache.demand_avg_miss_latency::total 154684.190476                       # average overall miss latency
system.cpu3.icache.overall_avg_miss_latency::switch_cpus3.inst 154684.190476                       # average overall miss latency
system.cpu3.icache.overall_avg_miss_latency::total 154684.190476                       # average overall miss latency
system.cpu3.icache.blocked_cycles::no_mshrs            0                       # number of cycles access was blocked
system.cpu3.icache.blocked_cycles::no_targets            0                       # number of cycles access was blocked
system.cpu3.icache.blocked::no_mshrs                0                       # number of cycles access was blocked
system.cpu3.icache.blocked::no_targets              0                       # number of cycles access was blocked
system.cpu3.icache.avg_blocked_cycles::no_mshrs          nan                       # average number of cycles each access was blocked
system.cpu3.icache.avg_blocked_cycles::no_targets          nan                       # average number of cycles each access was blocked
system.cpu3.icache.fast_writes                      0                       # number of fast writes performed
system.cpu3.icache.cache_copies                     0                       # number of cache copies performed
system.cpu3.icache.ReadReq_mshr_hits::switch_cpus3.inst            8                       # number of ReadReq MSHR hits
system.cpu3.icache.ReadReq_mshr_hits::total            8                       # number of ReadReq MSHR hits
system.cpu3.icache.demand_mshr_hits::switch_cpus3.inst            8                       # number of demand (read+write) MSHR hits
system.cpu3.icache.demand_mshr_hits::total            8                       # number of demand (read+write) MSHR hits
system.cpu3.icache.overall_mshr_hits::switch_cpus3.inst            8                       # number of overall MSHR hits
system.cpu3.icache.overall_mshr_hits::total            8                       # number of overall MSHR hits
system.cpu3.icache.ReadReq_mshr_misses::switch_cpus3.inst           13                       # number of ReadReq MSHR misses
system.cpu3.icache.ReadReq_mshr_misses::total           13                       # number of ReadReq MSHR misses
system.cpu3.icache.demand_mshr_misses::switch_cpus3.inst           13                       # number of demand (read+write) MSHR misses
system.cpu3.icache.demand_mshr_misses::total           13                       # number of demand (read+write) MSHR misses
system.cpu3.icache.overall_mshr_misses::switch_cpus3.inst           13                       # number of overall MSHR misses
system.cpu3.icache.overall_mshr_misses::total           13                       # number of overall MSHR misses
system.cpu3.icache.ReadReq_mshr_miss_latency::switch_cpus3.inst      2038628                       # number of ReadReq MSHR miss cycles
system.cpu3.icache.ReadReq_mshr_miss_latency::total      2038628                       # number of ReadReq MSHR miss cycles
system.cpu3.icache.demand_mshr_miss_latency::switch_cpus3.inst      2038628                       # number of demand (read+write) MSHR miss cycles
system.cpu3.icache.demand_mshr_miss_latency::total      2038628                       # number of demand (read+write) MSHR miss cycles
system.cpu3.icache.overall_mshr_miss_latency::switch_cpus3.inst      2038628                       # number of overall MSHR miss cycles
system.cpu3.icache.overall_mshr_miss_latency::total      2038628                       # number of overall MSHR miss cycles
system.cpu3.icache.ReadReq_mshr_miss_rate::switch_cpus3.inst     0.000001                       # mshr miss rate for ReadReq accesses
system.cpu3.icache.ReadReq_mshr_miss_rate::total     0.000001                       # mshr miss rate for ReadReq accesses
system.cpu3.icache.demand_mshr_miss_rate::switch_cpus3.inst     0.000001                       # mshr miss rate for demand accesses
system.cpu3.icache.demand_mshr_miss_rate::total     0.000001                       # mshr miss rate for demand accesses
system.cpu3.icache.overall_mshr_miss_rate::switch_cpus3.inst     0.000001                       # mshr miss rate for overall accesses
system.cpu3.icache.overall_mshr_miss_rate::total     0.000001                       # mshr miss rate for overall accesses
system.cpu3.icache.ReadReq_avg_mshr_miss_latency::switch_cpus3.inst 156817.538462                       # average ReadReq mshr miss latency
system.cpu3.icache.ReadReq_avg_mshr_miss_latency::total 156817.538462                       # average ReadReq mshr miss latency
system.cpu3.icache.demand_avg_mshr_miss_latency::switch_cpus3.inst 156817.538462                       # average overall mshr miss latency
system.cpu3.icache.demand_avg_mshr_miss_latency::total 156817.538462                       # average overall mshr miss latency
system.cpu3.icache.overall_avg_mshr_miss_latency::switch_cpus3.inst 156817.538462                       # average overall mshr miss latency
system.cpu3.icache.overall_avg_mshr_miss_latency::total 156817.538462                       # average overall mshr miss latency
system.cpu3.icache.no_allocate_misses               0                       # Number of misses that were no-allocate
system.cpu3.dcache.replacements                 48564                       # number of replacements
system.cpu3.dcache.tagsinuse                      256                       # Cycle average of tags in use
system.cpu3.dcache.total_refs               185554832                       # Total number of references to valid blocks.
system.cpu3.dcache.sampled_refs                 48820                       # Sample count of references to valid blocks.
system.cpu3.dcache.avg_refs               3800.795412                       # Average number of references to valid blocks.
system.cpu3.dcache.warmup_cycle                     0                       # Cycle when the warmup percentage was hit.
system.cpu3.dcache.occ_blocks::switch_cpus3.data   233.570047                       # Average occupied blocks per requestor
system.cpu3.dcache.occ_blocks::cpu3.data    22.429953                       # Average occupied blocks per requestor
system.cpu3.dcache.occ_percent::switch_cpus3.data     0.912383                       # Average percentage of cache occupancy
system.cpu3.dcache.occ_percent::cpu3.data     0.087617                       # Average percentage of cache occupancy
system.cpu3.dcache.occ_percent::total               1                       # Average percentage of cache occupancy
system.cpu3.dcache.ReadReq_hits::switch_cpus3.data      9735642                       # number of ReadReq hits
system.cpu3.dcache.ReadReq_hits::total        9735642                       # number of ReadReq hits
system.cpu3.dcache.WriteReq_hits::switch_cpus3.data      6705946                       # number of WriteReq hits
system.cpu3.dcache.WriteReq_hits::total       6705946                       # number of WriteReq hits
system.cpu3.dcache.LoadLockedReq_hits::switch_cpus3.data        16505                       # number of LoadLockedReq hits
system.cpu3.dcache.LoadLockedReq_hits::total        16505                       # number of LoadLockedReq hits
system.cpu3.dcache.StoreCondReq_hits::switch_cpus3.data        15560                       # number of StoreCondReq hits
system.cpu3.dcache.StoreCondReq_hits::total        15560                       # number of StoreCondReq hits
system.cpu3.dcache.demand_hits::switch_cpus3.data     16441588                       # number of demand (read+write) hits
system.cpu3.dcache.demand_hits::total        16441588                       # number of demand (read+write) hits
system.cpu3.dcache.overall_hits::switch_cpus3.data     16441588                       # number of overall hits
system.cpu3.dcache.overall_hits::total       16441588                       # number of overall hits
system.cpu3.dcache.ReadReq_misses::switch_cpus3.data       123050                       # number of ReadReq misses
system.cpu3.dcache.ReadReq_misses::total       123050                       # number of ReadReq misses
system.cpu3.dcache.WriteReq_misses::switch_cpus3.data         3280                       # number of WriteReq misses
system.cpu3.dcache.WriteReq_misses::total         3280                       # number of WriteReq misses
system.cpu3.dcache.demand_misses::switch_cpus3.data       126330                       # number of demand (read+write) misses
system.cpu3.dcache.demand_misses::total        126330                       # number of demand (read+write) misses
system.cpu3.dcache.overall_misses::switch_cpus3.data       126330                       # number of overall misses
system.cpu3.dcache.overall_misses::total       126330                       # number of overall misses
system.cpu3.dcache.ReadReq_miss_latency::switch_cpus3.data   8385265577                       # number of ReadReq miss cycles
system.cpu3.dcache.ReadReq_miss_latency::total   8385265577                       # number of ReadReq miss cycles
system.cpu3.dcache.WriteReq_miss_latency::switch_cpus3.data    408435779                       # number of WriteReq miss cycles
system.cpu3.dcache.WriteReq_miss_latency::total    408435779                       # number of WriteReq miss cycles
system.cpu3.dcache.demand_miss_latency::switch_cpus3.data   8793701356                       # number of demand (read+write) miss cycles
system.cpu3.dcache.demand_miss_latency::total   8793701356                       # number of demand (read+write) miss cycles
system.cpu3.dcache.overall_miss_latency::switch_cpus3.data   8793701356                       # number of overall miss cycles
system.cpu3.dcache.overall_miss_latency::total   8793701356                       # number of overall miss cycles
system.cpu3.dcache.ReadReq_accesses::switch_cpus3.data      9858692                       # number of ReadReq accesses(hits+misses)
system.cpu3.dcache.ReadReq_accesses::total      9858692                       # number of ReadReq accesses(hits+misses)
system.cpu3.dcache.WriteReq_accesses::switch_cpus3.data      6709226                       # number of WriteReq accesses(hits+misses)
system.cpu3.dcache.WriteReq_accesses::total      6709226                       # number of WriteReq accesses(hits+misses)
system.cpu3.dcache.LoadLockedReq_accesses::switch_cpus3.data        16505                       # number of LoadLockedReq accesses(hits+misses)
system.cpu3.dcache.LoadLockedReq_accesses::total        16505                       # number of LoadLockedReq accesses(hits+misses)
system.cpu3.dcache.StoreCondReq_accesses::switch_cpus3.data        15560                       # number of StoreCondReq accesses(hits+misses)
system.cpu3.dcache.StoreCondReq_accesses::total        15560                       # number of StoreCondReq accesses(hits+misses)
system.cpu3.dcache.demand_accesses::switch_cpus3.data     16567918                       # number of demand (read+write) accesses
system.cpu3.dcache.demand_accesses::total     16567918                       # number of demand (read+write) accesses
system.cpu3.dcache.overall_accesses::switch_cpus3.data     16567918                       # number of overall (read+write) accesses
system.cpu3.dcache.overall_accesses::total     16567918                       # number of overall (read+write) accesses
system.cpu3.dcache.ReadReq_miss_rate::switch_cpus3.data     0.012481                       # miss rate for ReadReq accesses
system.cpu3.dcache.ReadReq_miss_rate::total     0.012481                       # miss rate for ReadReq accesses
system.cpu3.dcache.WriteReq_miss_rate::switch_cpus3.data     0.000489                       # miss rate for WriteReq accesses
system.cpu3.dcache.WriteReq_miss_rate::total     0.000489                       # miss rate for WriteReq accesses
system.cpu3.dcache.demand_miss_rate::switch_cpus3.data     0.007625                       # miss rate for demand accesses
system.cpu3.dcache.demand_miss_rate::total     0.007625                       # miss rate for demand accesses
system.cpu3.dcache.overall_miss_rate::switch_cpus3.data     0.007625                       # miss rate for overall accesses
system.cpu3.dcache.overall_miss_rate::total     0.007625                       # miss rate for overall accesses
system.cpu3.dcache.ReadReq_avg_miss_latency::switch_cpus3.data 68145.189573                       # average ReadReq miss latency
system.cpu3.dcache.ReadReq_avg_miss_latency::total 68145.189573                       # average ReadReq miss latency
system.cpu3.dcache.WriteReq_avg_miss_latency::switch_cpus3.data 124523.103354                       # average WriteReq miss latency
system.cpu3.dcache.WriteReq_avg_miss_latency::total 124523.103354                       # average WriteReq miss latency
system.cpu3.dcache.demand_avg_miss_latency::switch_cpus3.data 69608.971392                       # average overall miss latency
system.cpu3.dcache.demand_avg_miss_latency::total 69608.971392                       # average overall miss latency
system.cpu3.dcache.overall_avg_miss_latency::switch_cpus3.data 69608.971392                       # average overall miss latency
system.cpu3.dcache.overall_avg_miss_latency::total 69608.971392                       # average overall miss latency
system.cpu3.dcache.blocked_cycles::no_mshrs            0                       # number of cycles access was blocked
system.cpu3.dcache.blocked_cycles::no_targets      1308648                       # number of cycles access was blocked
system.cpu3.dcache.blocked::no_mshrs                0                       # number of cycles access was blocked
system.cpu3.dcache.blocked::no_targets             14                       # number of cycles access was blocked
system.cpu3.dcache.avg_blocked_cycles::no_mshrs          nan                       # average number of cycles each access was blocked
system.cpu3.dcache.avg_blocked_cycles::no_targets 93474.857143                       # average number of cycles each access was blocked
system.cpu3.dcache.fast_writes                      0                       # number of fast writes performed
system.cpu3.dcache.cache_copies                     0                       # number of cache copies performed
system.cpu3.dcache.writebacks::writebacks        21756                       # number of writebacks
system.cpu3.dcache.writebacks::total            21756                       # number of writebacks
system.cpu3.dcache.ReadReq_mshr_hits::switch_cpus3.data        74488                       # number of ReadReq MSHR hits
system.cpu3.dcache.ReadReq_mshr_hits::total        74488                       # number of ReadReq MSHR hits
system.cpu3.dcache.WriteReq_mshr_hits::switch_cpus3.data         3278                       # number of WriteReq MSHR hits
system.cpu3.dcache.WriteReq_mshr_hits::total         3278                       # number of WriteReq MSHR hits
system.cpu3.dcache.demand_mshr_hits::switch_cpus3.data        77766                       # number of demand (read+write) MSHR hits
system.cpu3.dcache.demand_mshr_hits::total        77766                       # number of demand (read+write) MSHR hits
system.cpu3.dcache.overall_mshr_hits::switch_cpus3.data        77766                       # number of overall MSHR hits
system.cpu3.dcache.overall_mshr_hits::total        77766                       # number of overall MSHR hits
system.cpu3.dcache.ReadReq_mshr_misses::switch_cpus3.data        48562                       # number of ReadReq MSHR misses
system.cpu3.dcache.ReadReq_mshr_misses::total        48562                       # number of ReadReq MSHR misses
system.cpu3.dcache.WriteReq_mshr_misses::switch_cpus3.data            2                       # number of WriteReq MSHR misses
system.cpu3.dcache.WriteReq_mshr_misses::total            2                       # number of WriteReq MSHR misses
system.cpu3.dcache.demand_mshr_misses::switch_cpus3.data        48564                       # number of demand (read+write) MSHR misses
system.cpu3.dcache.demand_mshr_misses::total        48564                       # number of demand (read+write) MSHR misses
system.cpu3.dcache.overall_mshr_misses::switch_cpus3.data        48564                       # number of overall MSHR misses
system.cpu3.dcache.overall_mshr_misses::total        48564                       # number of overall MSHR misses
system.cpu3.dcache.ReadReq_mshr_miss_latency::switch_cpus3.data   2081227473                       # number of ReadReq MSHR miss cycles
system.cpu3.dcache.ReadReq_mshr_miss_latency::total   2081227473                       # number of ReadReq MSHR miss cycles
system.cpu3.dcache.WriteReq_mshr_miss_latency::switch_cpus3.data       245993                       # number of WriteReq MSHR miss cycles
system.cpu3.dcache.WriteReq_mshr_miss_latency::total       245993                       # number of WriteReq MSHR miss cycles
system.cpu3.dcache.demand_mshr_miss_latency::switch_cpus3.data   2081473466                       # number of demand (read+write) MSHR miss cycles
system.cpu3.dcache.demand_mshr_miss_latency::total   2081473466                       # number of demand (read+write) MSHR miss cycles
system.cpu3.dcache.overall_mshr_miss_latency::switch_cpus3.data   2081473466                       # number of overall MSHR miss cycles
system.cpu3.dcache.overall_mshr_miss_latency::total   2081473466                       # number of overall MSHR miss cycles
system.cpu3.dcache.ReadReq_mshr_miss_rate::switch_cpus3.data     0.004926                       # mshr miss rate for ReadReq accesses
system.cpu3.dcache.ReadReq_mshr_miss_rate::total     0.004926                       # mshr miss rate for ReadReq accesses
system.cpu3.dcache.WriteReq_mshr_miss_rate::switch_cpus3.data     0.000000                       # mshr miss rate for WriteReq accesses
system.cpu3.dcache.WriteReq_mshr_miss_rate::total     0.000000                       # mshr miss rate for WriteReq accesses
system.cpu3.dcache.demand_mshr_miss_rate::switch_cpus3.data     0.002931                       # mshr miss rate for demand accesses
system.cpu3.dcache.demand_mshr_miss_rate::total     0.002931                       # mshr miss rate for demand accesses
system.cpu3.dcache.overall_mshr_miss_rate::switch_cpus3.data     0.002931                       # mshr miss rate for overall accesses
system.cpu3.dcache.overall_mshr_miss_rate::total     0.002931                       # mshr miss rate for overall accesses
system.cpu3.dcache.ReadReq_avg_mshr_miss_latency::switch_cpus3.data 42857.120238                       # average ReadReq mshr miss latency
system.cpu3.dcache.ReadReq_avg_mshr_miss_latency::total 42857.120238                       # average ReadReq mshr miss latency
system.cpu3.dcache.WriteReq_avg_mshr_miss_latency::switch_cpus3.data 122996.500000                       # average WriteReq mshr miss latency
system.cpu3.dcache.WriteReq_avg_mshr_miss_latency::total 122996.500000                       # average WriteReq mshr miss latency
system.cpu3.dcache.demand_avg_mshr_miss_latency::switch_cpus3.data 42860.420600                       # average overall mshr miss latency
system.cpu3.dcache.demand_avg_mshr_miss_latency::total 42860.420600                       # average overall mshr miss latency
system.cpu3.dcache.overall_avg_mshr_miss_latency::switch_cpus3.data 42860.420600                       # average overall mshr miss latency
system.cpu3.dcache.overall_avg_mshr_miss_latency::total 42860.420600                       # average overall mshr miss latency
system.cpu3.dcache.no_allocate_misses               0                       # Number of misses that were no-allocate

---------- End Simulation Statistics   ----------
