
---------- Begin Simulation Statistics ----------
sim_seconds                                  0.117299                       # Number of seconds simulated
sim_ticks                                117299039109                       # Number of ticks simulated
final_tick                               1169968057174                       # Number of ticks from beginning of simulation (restored from checkpoints and never reset)
sim_freq                                 1000000000000                       # Frequency of simulated ticks
host_inst_rate                                 156761                       # Simulator instruction rate (inst/s)
host_op_rate                                   203118                       # Simulator op (including micro ops) rate (op/s)
host_tick_rate                                5757093                       # Simulator tick rate (ticks/s)
host_mem_usage                               16907068                       # Number of bytes of host memory used
host_seconds                                 20374.70                       # Real time elapsed on the host
sim_insts                                  3193954023                       # Number of instructions simulated
sim_ops                                    4138476600                       # Number of ops (including micro ops) simulated
system.physmem.bytes_read::switch_cpus0.inst         1664                       # Number of bytes read from this memory
system.physmem.bytes_read::switch_cpus0.data      2062720                       # Number of bytes read from this memory
system.physmem.bytes_read::switch_cpus1.inst         1792                       # Number of bytes read from this memory
system.physmem.bytes_read::switch_cpus1.data      1591296                       # Number of bytes read from this memory
system.physmem.bytes_read::switch_cpus2.inst         1664                       # Number of bytes read from this memory
system.physmem.bytes_read::switch_cpus2.data      1137792                       # Number of bytes read from this memory
system.physmem.bytes_read::total              4796928                       # Number of bytes read from this memory
system.physmem.bytes_inst_read::switch_cpus0.inst         1664                       # Number of instructions bytes read from this memory
system.physmem.bytes_inst_read::switch_cpus1.inst         1792                       # Number of instructions bytes read from this memory
system.physmem.bytes_inst_read::switch_cpus2.inst         1664                       # Number of instructions bytes read from this memory
system.physmem.bytes_inst_read::total            5120                       # Number of instructions bytes read from this memory
system.physmem.bytes_written::writebacks      1504000                       # Number of bytes written to this memory
system.physmem.bytes_written::total           1504000                       # Number of bytes written to this memory
system.physmem.num_reads::switch_cpus0.inst           13                       # Number of read requests responded to by this memory
system.physmem.num_reads::switch_cpus0.data        16115                       # Number of read requests responded to by this memory
system.physmem.num_reads::switch_cpus1.inst           14                       # Number of read requests responded to by this memory
system.physmem.num_reads::switch_cpus1.data        12432                       # Number of read requests responded to by this memory
system.physmem.num_reads::switch_cpus2.inst           13                       # Number of read requests responded to by this memory
system.physmem.num_reads::switch_cpus2.data         8889                       # Number of read requests responded to by this memory
system.physmem.num_reads::total                 37476                       # Number of read requests responded to by this memory
system.physmem.num_writes::writebacks           11750                       # Number of write requests responded to by this memory
system.physmem.num_writes::functional               0                       # Number of write requests responded to by this memory
system.physmem.num_writes::interrupt                0                       # Number of write requests responded to by this memory
system.physmem.num_writes::switch_cpus0.dtb.walker            0                       # Number of write requests responded to by this memory
system.physmem.num_writes::switch_cpus0.itb.walker            0                       # Number of write requests responded to by this memory
system.physmem.num_writes::switch_cpus0.inst            0                       # Number of write requests responded to by this memory
system.physmem.num_writes::switch_cpus0.data            0                       # Number of write requests responded to by this memory
system.physmem.num_writes::switch_cpus1.dtb.walker            0                       # Number of write requests responded to by this memory
system.physmem.num_writes::switch_cpus1.itb.walker            0                       # Number of write requests responded to by this memory
system.physmem.num_writes::switch_cpus1.inst            0                       # Number of write requests responded to by this memory
system.physmem.num_writes::switch_cpus1.data            0                       # Number of write requests responded to by this memory
system.physmem.num_writes::switch_cpus2.dtb.walker            0                       # Number of write requests responded to by this memory
system.physmem.num_writes::switch_cpus2.itb.walker            0                       # Number of write requests responded to by this memory
system.physmem.num_writes::switch_cpus2.inst            0                       # Number of write requests responded to by this memory
system.physmem.num_writes::switch_cpus2.data            0                       # Number of write requests responded to by this memory
system.physmem.num_writes::cpu0.dtb.walker            0                       # Number of write requests responded to by this memory
system.physmem.num_writes::cpu0.itb.walker            0                       # Number of write requests responded to by this memory
system.physmem.num_writes::cpu0.inst                0                       # Number of write requests responded to by this memory
system.physmem.num_writes::cpu0.data                0                       # Number of write requests responded to by this memory
system.physmem.num_writes::cpu1.dtb.walker            0                       # Number of write requests responded to by this memory
system.physmem.num_writes::cpu1.itb.walker            0                       # Number of write requests responded to by this memory
system.physmem.num_writes::cpu1.inst                0                       # Number of write requests responded to by this memory
system.physmem.num_writes::cpu1.data                0                       # Number of write requests responded to by this memory
system.physmem.num_writes::cpu2.dtb.walker            0                       # Number of write requests responded to by this memory
system.physmem.num_writes::cpu2.itb.walker            0                       # Number of write requests responded to by this memory
system.physmem.num_writes::cpu2.inst                0                       # Number of write requests responded to by this memory
system.physmem.num_writes::cpu2.data                0                       # Number of write requests responded to by this memory
system.physmem.num_writes::total                11750                       # Number of write requests responded to by this memory
system.physmem.bw_read::switch_cpus0.inst        14186                       # Total read bandwidth from this memory (bytes/s)
system.physmem.bw_read::switch_cpus0.data     17585140                       # Total read bandwidth from this memory (bytes/s)
system.physmem.bw_read::switch_cpus1.inst        15277                       # Total read bandwidth from this memory (bytes/s)
system.physmem.bw_read::switch_cpus1.data     13566147                       # Total read bandwidth from this memory (bytes/s)
system.physmem.bw_read::switch_cpus2.inst        14186                       # Total read bandwidth from this memory (bytes/s)
system.physmem.bw_read::switch_cpus2.data      9699926                       # Total read bandwidth from this memory (bytes/s)
system.physmem.bw_read::total                40894862                       # Total read bandwidth from this memory (bytes/s)
system.physmem.bw_inst_read::switch_cpus0.inst        14186                       # Instruction read bandwidth from this memory (bytes/s)
system.physmem.bw_inst_read::switch_cpus1.inst        15277                       # Instruction read bandwidth from this memory (bytes/s)
system.physmem.bw_inst_read::switch_cpus2.inst        14186                       # Instruction read bandwidth from this memory (bytes/s)
system.physmem.bw_inst_read::total              43649                       # Instruction read bandwidth from this memory (bytes/s)
system.physmem.bw_write::writebacks          12821929                       # Write bandwidth from this memory (bytes/s)
system.physmem.bw_write::total               12821929                       # Write bandwidth from this memory (bytes/s)
system.physmem.bw_total::writebacks          12821929                       # Total bandwidth to/from this memory (bytes/s)
system.physmem.bw_total::switch_cpus0.inst        14186                       # Total bandwidth to/from this memory (bytes/s)
system.physmem.bw_total::switch_cpus0.data     17585140                       # Total bandwidth to/from this memory (bytes/s)
system.physmem.bw_total::switch_cpus1.inst        15277                       # Total bandwidth to/from this memory (bytes/s)
system.physmem.bw_total::switch_cpus1.data     13566147                       # Total bandwidth to/from this memory (bytes/s)
system.physmem.bw_total::switch_cpus2.inst        14186                       # Total bandwidth to/from this memory (bytes/s)
system.physmem.bw_total::switch_cpus2.data      9699926                       # Total bandwidth to/from this memory (bytes/s)
system.physmem.bw_total::total               53716791                       # Total bandwidth to/from this memory (bytes/s)
system.switch_cpus0.dtb.inst_hits                   0                       # ITB inst hits
system.switch_cpus0.dtb.inst_misses                 0                       # ITB inst misses
system.switch_cpus0.dtb.read_hits                   0                       # DTB read hits
system.switch_cpus0.dtb.read_misses                 0                       # DTB read misses
system.switch_cpus0.dtb.write_hits                  0                       # DTB write hits
system.switch_cpus0.dtb.write_misses                0                       # DTB write misses
system.switch_cpus0.dtb.flush_tlb                   0                       # Number of times complete TLB was flushed
system.switch_cpus0.dtb.flush_tlb_mva               0                       # Number of times TLB was flushed by MVA
system.switch_cpus0.dtb.flush_tlb_mva_asid            0                       # Number of times TLB was flushed by MVA & ASID
system.switch_cpus0.dtb.flush_tlb_asid              0                       # Number of times TLB was flushed by ASID
system.switch_cpus0.dtb.flush_entries               0                       # Number of entries that have been flushed from TLB
system.switch_cpus0.dtb.align_faults                0                       # Number of TLB faults due to alignment restrictions
system.switch_cpus0.dtb.prefetch_faults             0                       # Number of TLB faults due to prefetch
system.switch_cpus0.dtb.domain_faults               0                       # Number of TLB faults due to domain restrictions
system.switch_cpus0.dtb.perms_faults                0                       # Number of TLB faults due to permissions restrictions
system.switch_cpus0.dtb.read_accesses               0                       # DTB read accesses
system.switch_cpus0.dtb.write_accesses              0                       # DTB write accesses
system.switch_cpus0.dtb.inst_accesses               0                       # ITB inst accesses
system.switch_cpus0.dtb.hits                        0                       # DTB hits
system.switch_cpus0.dtb.misses                      0                       # DTB misses
system.switch_cpus0.dtb.accesses                    0                       # DTB accesses
system.switch_cpus0.itb.inst_hits                   0                       # ITB inst hits
system.switch_cpus0.itb.inst_misses                 0                       # ITB inst misses
system.switch_cpus0.itb.read_hits                   0                       # DTB read hits
system.switch_cpus0.itb.read_misses                 0                       # DTB read misses
system.switch_cpus0.itb.write_hits                  0                       # DTB write hits
system.switch_cpus0.itb.write_misses                0                       # DTB write misses
system.switch_cpus0.itb.flush_tlb                   0                       # Number of times complete TLB was flushed
system.switch_cpus0.itb.flush_tlb_mva               0                       # Number of times TLB was flushed by MVA
system.switch_cpus0.itb.flush_tlb_mva_asid            0                       # Number of times TLB was flushed by MVA & ASID
system.switch_cpus0.itb.flush_tlb_asid              0                       # Number of times TLB was flushed by ASID
system.switch_cpus0.itb.flush_entries               0                       # Number of entries that have been flushed from TLB
system.switch_cpus0.itb.align_faults                0                       # Number of TLB faults due to alignment restrictions
system.switch_cpus0.itb.prefetch_faults             0                       # Number of TLB faults due to prefetch
system.switch_cpus0.itb.domain_faults               0                       # Number of TLB faults due to domain restrictions
system.switch_cpus0.itb.perms_faults                0                       # Number of TLB faults due to permissions restrictions
system.switch_cpus0.itb.read_accesses               0                       # DTB read accesses
system.switch_cpus0.itb.write_accesses              0                       # DTB write accesses
system.switch_cpus0.itb.inst_accesses               0                       # ITB inst accesses
system.switch_cpus0.itb.hits                        0                       # DTB hits
system.switch_cpus0.itb.misses                      0                       # DTB misses
system.switch_cpus0.itb.accesses                    0                       # DTB accesses
system.cpu0.workload.num_syscalls                   0                       # Number of system calls
system.switch_cpus0.numCycles               140815174                       # number of cpu cycles simulated
system.switch_cpus0.numWorkItemsStarted             0                       # number of work items this cpu started
system.switch_cpus0.numWorkItemsCompleted            0                       # number of work items this cpu completed
system.switch_cpus0.BPredUnit.lookups        23434657                       # Number of BP lookups
system.switch_cpus0.BPredUnit.condPredicted     18988855                       # Number of conditional branches predicted
system.switch_cpus0.BPredUnit.condIncorrect      2031451                       # Number of conditional branches incorrect
system.switch_cpus0.BPredUnit.BTBLookups      9370316                       # Number of BTB lookups
system.switch_cpus0.BPredUnit.BTBHits         8992762                       # Number of BTB hits
system.switch_cpus0.BPredUnit.BTBCorrect            0                       # Number of correct BTB predictions (this stat may not work properly.
system.switch_cpus0.BPredUnit.usedRAS         2505197                       # Number of times the RAS was used to get a target.
system.switch_cpus0.BPredUnit.RASInCorrect        90210                       # Number of incorrect RAS predictions.
system.switch_cpus0.fetch.icacheStallCycles    102181477                       # Number of cycles fetch is stalled on an Icache miss
system.switch_cpus0.fetch.Insts             128986748                       # Number of instructions fetch has processed
system.switch_cpus0.fetch.Branches           23434657                       # Number of branches that fetch encountered
system.switch_cpus0.fetch.predictedBranches     11497959                       # Number of branches that fetch has predicted taken
system.switch_cpus0.fetch.Cycles             28181910                       # Number of cycles fetch has run and was not squashing or blocked
system.switch_cpus0.fetch.SquashCycles        6602428                       # Number of cycles fetch has spent squashing
system.switch_cpus0.fetch.BlockedCycles       2900210                       # Number of cycles fetch has spent blocked
system.switch_cpus0.fetch.CacheLines         11926250                       # Number of cache lines fetched
system.switch_cpus0.fetch.IcacheSquashes      1640732                       # Number of outstanding Icache misses that were squashed
system.switch_cpus0.fetch.rateDist::samples    137789249                       # Number of instructions fetched each cycle (Total)
system.switch_cpus0.fetch.rateDist::mean     1.143217                       # Number of instructions fetched each cycle (Total)
system.switch_cpus0.fetch.rateDist::stdev     2.557387                       # Number of instructions fetched each cycle (Total)
system.switch_cpus0.fetch.rateDist::underflows            0      0.00%      0.00% # Number of instructions fetched each cycle (Total)
system.switch_cpus0.fetch.rateDist::0       109607339     79.55%     79.55% # Number of instructions fetched each cycle (Total)
system.switch_cpus0.fetch.rateDist::1         2653650      1.93%     81.47% # Number of instructions fetched each cycle (Total)
system.switch_cpus0.fetch.rateDist::2         2018566      1.46%     82.94% # Number of instructions fetched each cycle (Total)
system.switch_cpus0.fetch.rateDist::3         4957230      3.60%     86.54% # Number of instructions fetched each cycle (Total)
system.switch_cpus0.fetch.rateDist::4         1117706      0.81%     87.35% # Number of instructions fetched each cycle (Total)
system.switch_cpus0.fetch.rateDist::5         1602104      1.16%     88.51% # Number of instructions fetched each cycle (Total)
system.switch_cpus0.fetch.rateDist::6         1209045      0.88%     89.39% # Number of instructions fetched each cycle (Total)
system.switch_cpus0.fetch.rateDist::7          763956      0.55%     89.94% # Number of instructions fetched each cycle (Total)
system.switch_cpus0.fetch.rateDist::8        13859653     10.06%    100.00% # Number of instructions fetched each cycle (Total)
system.switch_cpus0.fetch.rateDist::overflows            0      0.00%    100.00% # Number of instructions fetched each cycle (Total)
system.switch_cpus0.fetch.rateDist::min_value            0                       # Number of instructions fetched each cycle (Total)
system.switch_cpus0.fetch.rateDist::max_value            8                       # Number of instructions fetched each cycle (Total)
system.switch_cpus0.fetch.rateDist::total    137789249                       # Number of instructions fetched each cycle (Total)
system.switch_cpus0.fetch.branchRate         0.166421                       # Number of branch fetches per cycle
system.switch_cpus0.fetch.rate               0.916000                       # Number of inst fetches per cycle
system.switch_cpus0.decode.IdleCycles       100989644                       # Number of cycles decode is idle
system.switch_cpus0.decode.BlockedCycles      4457687                       # Number of cycles decode is blocked
system.switch_cpus0.decode.RunCycles         27747098                       # Number of cycles decode is running
system.switch_cpus0.decode.UnblockCycles       111008                       # Number of cycles decode is unblocking
system.switch_cpus0.decode.SquashCycles       4483810                       # Number of cycles decode is squashing
system.switch_cpus0.decode.BranchResolved      4046919                       # Number of times decode resolved a branch
system.switch_cpus0.decode.BranchMispred        41846                       # Number of times decode detected a branch misprediction
system.switch_cpus0.decode.DecodedInsts     155637457                       # Number of instructions handled by decode
system.switch_cpus0.decode.SquashedInsts        77504                       # Number of squashed instructions handled by decode
system.switch_cpus0.rename.SquashCycles       4483810                       # Number of cycles rename is squashing
system.switch_cpus0.rename.IdleCycles       101845544                       # Number of cycles rename is idle
system.switch_cpus0.rename.BlockCycles        1249397                       # Number of cycles rename is blocking
system.switch_cpus0.rename.serializeStallCycles      1772052                       # count of cycles rename stalled for serializing inst
system.switch_cpus0.rename.RunCycles         26993005                       # Number of cycles rename is running
system.switch_cpus0.rename.UnblockCycles      1445439                       # Number of cycles rename is unblocking
system.switch_cpus0.rename.RenamedInsts     154027917                       # Number of instructions processed by rename
system.switch_cpus0.rename.ROBFullEvents        17090                       # Number of times rename has blocked due to ROB full
system.switch_cpus0.rename.IQFullEvents        267081                       # Number of times rename has blocked due to IQ full
system.switch_cpus0.rename.LSQFullEvents       602146                       # Number of times rename has blocked due to LSQ full
system.switch_cpus0.rename.FullRegisterEvents       145189                       # Number of times there has been no free registers
system.switch_cpus0.rename.RenamedOperands    216376704                       # Number of destination operands rename has renamed
system.switch_cpus0.rename.RenameLookups    717384792                       # Number of register rename lookups that rename has made
system.switch_cpus0.rename.int_rename_lookups    717384792                       # Number of integer rename lookups
system.switch_cpus0.rename.CommittedMaps    170695504                       # Number of HB maps that are committed
system.switch_cpus0.rename.UndoneMaps        45681194                       # Number of HB maps that are undone due to squashing
system.switch_cpus0.rename.serializingInsts        37776                       # count of serializing insts renamed
system.switch_cpus0.rename.tempSerializingInsts        21242                       # count of temporary serializing insts renamed
system.switch_cpus0.rename.skidInsts          4976189                       # count of insts added to the skid buffer
system.switch_cpus0.memDep0.insertedLoads     14877298                       # Number of loads inserted to the mem dependence unit.
system.switch_cpus0.memDep0.insertedStores      7252524                       # Number of stores inserted to the mem dependence unit.
system.switch_cpus0.memDep0.conflictingLoads       120836                       # Number of conflicting loads.
system.switch_cpus0.memDep0.conflictingStores      1610560                       # Number of conflicting stores.
system.switch_cpus0.iq.iqInstsAdded         151289333                       # Number of instructions added to the IQ (excludes non-spec)
system.switch_cpus0.iq.iqNonSpecInstsAdded        37766                       # Number of non-speculative instructions added to the IQ
system.switch_cpus0.iq.iqInstsIssued        140482416                       # Number of instructions issued
system.switch_cpus0.iq.iqSquashedInstsIssued       189702                       # Number of squashed instructions issued
system.switch_cpus0.iq.iqSquashedInstsExamined     27703651                       # Number of squashed instructions iterated over during squash; mainly for profiling
system.switch_cpus0.iq.iqSquashedOperandsExamined     60047769                       # Number of squashed operands that are examined and possibly removed from graph
system.switch_cpus0.iq.iqSquashedNonSpecRemoved         4698                       # Number of squashed non-spec instructions that were removed
system.switch_cpus0.iq.issued_per_cycle::samples    137789249                       # Number of insts issued each cycle
system.switch_cpus0.iq.issued_per_cycle::mean     1.019546                       # Number of insts issued each cycle
system.switch_cpus0.iq.issued_per_cycle::stdev     1.565998                       # Number of insts issued each cycle
system.switch_cpus0.iq.issued_per_cycle::underflows            0      0.00%      0.00% # Number of insts issued each cycle
system.switch_cpus0.iq.issued_per_cycle::0     78972923     57.31%     57.31% # Number of insts issued each cycle
system.switch_cpus0.iq.issued_per_cycle::1     24704748     17.93%     75.24% # Number of insts issued each cycle
system.switch_cpus0.iq.issued_per_cycle::2     11542942      8.38%     83.62% # Number of insts issued each cycle
system.switch_cpus0.iq.issued_per_cycle::3      8470682      6.15%     89.77% # Number of insts issued each cycle
system.switch_cpus0.iq.issued_per_cycle::4      7536483      5.47%     95.24% # Number of insts issued each cycle
system.switch_cpus0.iq.issued_per_cycle::5      2991792      2.17%     97.41% # Number of insts issued each cycle
system.switch_cpus0.iq.issued_per_cycle::6      2961939      2.15%     99.56% # Number of insts issued each cycle
system.switch_cpus0.iq.issued_per_cycle::7       458708      0.33%     99.89% # Number of insts issued each cycle
system.switch_cpus0.iq.issued_per_cycle::8       149032      0.11%    100.00% # Number of insts issued each cycle
system.switch_cpus0.iq.issued_per_cycle::overflows            0      0.00%    100.00% # Number of insts issued each cycle
system.switch_cpus0.iq.issued_per_cycle::min_value            0                       # Number of insts issued each cycle
system.switch_cpus0.iq.issued_per_cycle::max_value            8                       # Number of insts issued each cycle
system.switch_cpus0.iq.issued_per_cycle::total    137789249                       # Number of insts issued each cycle
system.switch_cpus0.iq.fu_full::No_OpClass            0      0.00%      0.00% # attempts to use FU when none available
system.switch_cpus0.iq.fu_full::IntAlu         564226     68.53%     68.53% # attempts to use FU when none available
system.switch_cpus0.iq.fu_full::IntMult             0      0.00%     68.53% # attempts to use FU when none available
system.switch_cpus0.iq.fu_full::IntDiv              0      0.00%     68.53% # attempts to use FU when none available
system.switch_cpus0.iq.fu_full::FloatAdd            0      0.00%     68.53% # attempts to use FU when none available
system.switch_cpus0.iq.fu_full::FloatCmp            0      0.00%     68.53% # attempts to use FU when none available
system.switch_cpus0.iq.fu_full::FloatCvt            0      0.00%     68.53% # attempts to use FU when none available
system.switch_cpus0.iq.fu_full::FloatMult            0      0.00%     68.53% # attempts to use FU when none available
system.switch_cpus0.iq.fu_full::FloatDiv            0      0.00%     68.53% # attempts to use FU when none available
system.switch_cpus0.iq.fu_full::FloatSqrt            0      0.00%     68.53% # attempts to use FU when none available
system.switch_cpus0.iq.fu_full::SimdAdd             0      0.00%     68.53% # attempts to use FU when none available
system.switch_cpus0.iq.fu_full::SimdAddAcc            0      0.00%     68.53% # attempts to use FU when none available
system.switch_cpus0.iq.fu_full::SimdAlu             0      0.00%     68.53% # attempts to use FU when none available
system.switch_cpus0.iq.fu_full::SimdCmp             0      0.00%     68.53% # attempts to use FU when none available
system.switch_cpus0.iq.fu_full::SimdCvt             0      0.00%     68.53% # attempts to use FU when none available
system.switch_cpus0.iq.fu_full::SimdMisc            0      0.00%     68.53% # attempts to use FU when none available
system.switch_cpus0.iq.fu_full::SimdMult            0      0.00%     68.53% # attempts to use FU when none available
system.switch_cpus0.iq.fu_full::SimdMultAcc            0      0.00%     68.53% # attempts to use FU when none available
system.switch_cpus0.iq.fu_full::SimdShift            0      0.00%     68.53% # attempts to use FU when none available
system.switch_cpus0.iq.fu_full::SimdShiftAcc            0      0.00%     68.53% # attempts to use FU when none available
system.switch_cpus0.iq.fu_full::SimdSqrt            0      0.00%     68.53% # attempts to use FU when none available
system.switch_cpus0.iq.fu_full::SimdFloatAdd            0      0.00%     68.53% # attempts to use FU when none available
system.switch_cpus0.iq.fu_full::SimdFloatAlu            0      0.00%     68.53% # attempts to use FU when none available
system.switch_cpus0.iq.fu_full::SimdFloatCmp            0      0.00%     68.53% # attempts to use FU when none available
system.switch_cpus0.iq.fu_full::SimdFloatCvt            0      0.00%     68.53% # attempts to use FU when none available
system.switch_cpus0.iq.fu_full::SimdFloatDiv            0      0.00%     68.53% # attempts to use FU when none available
system.switch_cpus0.iq.fu_full::SimdFloatMisc            0      0.00%     68.53% # attempts to use FU when none available
system.switch_cpus0.iq.fu_full::SimdFloatMult            0      0.00%     68.53% # attempts to use FU when none available
system.switch_cpus0.iq.fu_full::SimdFloatMultAcc            0      0.00%     68.53% # attempts to use FU when none available
system.switch_cpus0.iq.fu_full::SimdFloatSqrt            0      0.00%     68.53% # attempts to use FU when none available
system.switch_cpus0.iq.fu_full::MemRead        116388     14.14%     82.67% # attempts to use FU when none available
system.switch_cpus0.iq.fu_full::MemWrite       142678     17.33%    100.00% # attempts to use FU when none available
system.switch_cpus0.iq.fu_full::IprAccess            0      0.00%    100.00% # attempts to use FU when none available
system.switch_cpus0.iq.fu_full::InstPrefetch            0      0.00%    100.00% # attempts to use FU when none available
system.switch_cpus0.iq.FU_type_0::No_OpClass            0      0.00%      0.00% # Type of FU issued
system.switch_cpus0.iq.FU_type_0::IntAlu    117909279     83.93%     83.93% # Type of FU issued
system.switch_cpus0.iq.FU_type_0::IntMult      2111186      1.50%     85.43% # Type of FU issued
system.switch_cpus0.iq.FU_type_0::IntDiv            0      0.00%     85.43% # Type of FU issued
system.switch_cpus0.iq.FU_type_0::FloatAdd            0      0.00%     85.43% # Type of FU issued
system.switch_cpus0.iq.FU_type_0::FloatCmp            0      0.00%     85.43% # Type of FU issued
system.switch_cpus0.iq.FU_type_0::FloatCvt            0      0.00%     85.43% # Type of FU issued
system.switch_cpus0.iq.FU_type_0::FloatMult            0      0.00%     85.43% # Type of FU issued
system.switch_cpus0.iq.FU_type_0::FloatDiv            0      0.00%     85.43% # Type of FU issued
system.switch_cpus0.iq.FU_type_0::FloatSqrt            0      0.00%     85.43% # Type of FU issued
system.switch_cpus0.iq.FU_type_0::SimdAdd            0      0.00%     85.43% # Type of FU issued
system.switch_cpus0.iq.FU_type_0::SimdAddAcc            0      0.00%     85.43% # Type of FU issued
system.switch_cpus0.iq.FU_type_0::SimdAlu            0      0.00%     85.43% # Type of FU issued
system.switch_cpus0.iq.FU_type_0::SimdCmp            0      0.00%     85.43% # Type of FU issued
system.switch_cpus0.iq.FU_type_0::SimdCvt            0      0.00%     85.43% # Type of FU issued
system.switch_cpus0.iq.FU_type_0::SimdMisc            0      0.00%     85.43% # Type of FU issued
system.switch_cpus0.iq.FU_type_0::SimdMult            0      0.00%     85.43% # Type of FU issued
system.switch_cpus0.iq.FU_type_0::SimdMultAcc            0      0.00%     85.43% # Type of FU issued
system.switch_cpus0.iq.FU_type_0::SimdShift            0      0.00%     85.43% # Type of FU issued
system.switch_cpus0.iq.FU_type_0::SimdShiftAcc            0      0.00%     85.43% # Type of FU issued
system.switch_cpus0.iq.FU_type_0::SimdSqrt            0      0.00%     85.43% # Type of FU issued
system.switch_cpus0.iq.FU_type_0::SimdFloatAdd            0      0.00%     85.43% # Type of FU issued
system.switch_cpus0.iq.FU_type_0::SimdFloatAlu            0      0.00%     85.43% # Type of FU issued
system.switch_cpus0.iq.FU_type_0::SimdFloatCmp            0      0.00%     85.43% # Type of FU issued
system.switch_cpus0.iq.FU_type_0::SimdFloatCvt            0      0.00%     85.43% # Type of FU issued
system.switch_cpus0.iq.FU_type_0::SimdFloatDiv            0      0.00%     85.43% # Type of FU issued
system.switch_cpus0.iq.FU_type_0::SimdFloatMisc        16534      0.01%     85.45% # Type of FU issued
system.switch_cpus0.iq.FU_type_0::SimdFloatMult            0      0.00%     85.45% # Type of FU issued
system.switch_cpus0.iq.FU_type_0::SimdFloatMultAcc            0      0.00%     85.45% # Type of FU issued
system.switch_cpus0.iq.FU_type_0::SimdFloatSqrt            0      0.00%     85.45% # Type of FU issued
system.switch_cpus0.iq.FU_type_0::MemRead     13262760      9.44%     94.89% # Type of FU issued
system.switch_cpus0.iq.FU_type_0::MemWrite      7182657      5.11%    100.00% # Type of FU issued
system.switch_cpus0.iq.FU_type_0::IprAccess            0      0.00%    100.00% # Type of FU issued
system.switch_cpus0.iq.FU_type_0::InstPrefetch            0      0.00%    100.00% # Type of FU issued
system.switch_cpus0.iq.FU_type_0::total     140482416                       # Type of FU issued
system.switch_cpus0.iq.rate                  0.997637                       # Inst issue rate
system.switch_cpus0.iq.fu_busy_cnt             823292                       # FU busy when requested
system.switch_cpus0.iq.fu_busy_rate          0.005860                       # FU busy rate (busy events/executed inst)
system.switch_cpus0.iq.int_inst_queue_reads    419767075                       # Number of integer instruction queue reads
system.switch_cpus0.iq.int_inst_queue_writes    179031180                       # Number of integer instruction queue writes
system.switch_cpus0.iq.int_inst_queue_wakeup_accesses    136946441                       # Number of integer instruction queue wakeup accesses
system.switch_cpus0.iq.fp_inst_queue_reads            0                       # Number of floating instruction queue reads
system.switch_cpus0.iq.fp_inst_queue_writes            0                       # Number of floating instruction queue writes
system.switch_cpus0.iq.fp_inst_queue_wakeup_accesses            0                       # Number of floating instruction queue wakeup accesses
system.switch_cpus0.iq.int_alu_accesses     141305708                       # Number of integer alu accesses
system.switch_cpus0.iq.fp_alu_accesses              0                       # Number of floating point alu accesses
system.switch_cpus0.iew.lsq.thread0.forwLoads       343330                       # Number of loads that had data forwarded from stores
system.switch_cpus0.iew.lsq.thread0.invAddrLoads            0                       # Number of loads ignored due to an invalid address
system.switch_cpus0.iew.lsq.thread0.squashedLoads      3643330                       # Number of loads squashed
system.switch_cpus0.iew.lsq.thread0.ignoredResponses         1056                       # Number of memory responses ignored because the instruction is squashed
system.switch_cpus0.iew.lsq.thread0.memOrderViolation          430                       # Number of memory ordering violations
system.switch_cpus0.iew.lsq.thread0.squashedStores       226751                       # Number of stores squashed
system.switch_cpus0.iew.lsq.thread0.invAddrSwpfs            0                       # Number of software prefetches ignored due to an invalid address
system.switch_cpus0.iew.lsq.thread0.blockedLoads            0                       # Number of blocked loads due to partial load-store forwarding
system.switch_cpus0.iew.lsq.thread0.rescheduledLoads            0                       # Number of loads that were rescheduled
system.switch_cpus0.iew.lsq.thread0.cacheBlocked            0                       # Number of times an access to memory failed due to the cache being blocked
system.switch_cpus0.iew.iewIdleCycles               0                       # Number of cycles IEW is idle
system.switch_cpus0.iew.iewSquashCycles       4483810                       # Number of cycles IEW is squashing
system.switch_cpus0.iew.iewBlockCycles         781240                       # Number of cycles IEW is blocking
system.switch_cpus0.iew.iewUnblockCycles        90918                       # Number of cycles IEW is unblocking
system.switch_cpus0.iew.iewDispatchedInsts    151327099                       # Number of instructions dispatched to IQ
system.switch_cpus0.iew.iewDispSquashedInsts        51331                       # Number of squashed instructions skipped by dispatch
system.switch_cpus0.iew.iewDispLoadInsts     14877298                       # Number of dispatched load instructions
system.switch_cpus0.iew.iewDispStoreInsts      7252524                       # Number of dispatched store instructions
system.switch_cpus0.iew.iewDispNonSpecInsts        21232                       # Number of dispatched non-speculative instructions
system.switch_cpus0.iew.iewIQFullEvents         79434                       # Number of times the IQ has become full, causing a stall
system.switch_cpus0.iew.iewLSQFullEvents            0                       # Number of times the LSQ has become full, causing a stall
system.switch_cpus0.iew.memOrderViolationEvents          430                       # Number of memory order violations
system.switch_cpus0.iew.predictedTakenIncorrect      1103439                       # Number of branches that were predicted taken incorrectly
system.switch_cpus0.iew.predictedNotTakenIncorrect      1160402                       # Number of branches that were predicted not taken incorrectly
system.switch_cpus0.iew.branchMispredicts      2263841                       # Number of branch mispredicts detected at execute
system.switch_cpus0.iew.iewExecutedInsts    137952422                       # Number of executed instructions
system.switch_cpus0.iew.iewExecLoadInsts     12744425                       # Number of load instructions executed
system.switch_cpus0.iew.iewExecSquashedInsts      2529994                       # Number of squashed instructions skipped in execute
system.switch_cpus0.iew.exec_swp                    0                       # number of swp insts executed
system.switch_cpus0.iew.exec_nop                    0                       # number of nop insts executed
system.switch_cpus0.iew.exec_refs            19925370                       # number of memory reference insts executed
system.switch_cpus0.iew.exec_branches        19592122                       # Number of branches executed
system.switch_cpus0.iew.exec_stores           7180945                       # Number of stores executed
system.switch_cpus0.iew.exec_rate            0.979670                       # Inst execution rate
system.switch_cpus0.iew.wb_sent             137127327                       # cumulative count of insts sent to commit
system.switch_cpus0.iew.wb_count            136946441                       # cumulative count of insts written-back
system.switch_cpus0.iew.wb_producers         82131519                       # num instructions producing a value
system.switch_cpus0.iew.wb_consumers        227572474                       # num instructions consuming a value
system.switch_cpus0.iew.wb_penalized                0                       # number of instrctions required to write to 'other' IQ
system.switch_cpus0.iew.wb_rate              0.972526                       # insts written-back per cycle
system.switch_cpus0.iew.wb_fanout            0.360903                       # average fanout of values written-back
system.switch_cpus0.iew.wb_penalized_rate            0                       # fraction of instructions written-back that wrote to 'other' IQ
system.switch_cpus0.commit.commitCommittedInsts    100000001                       # The number of committed instructions
system.switch_cpus0.commit.commitCommittedOps    122809435                       # The number of committed instructions
system.switch_cpus0.commit.commitSquashedInsts     28518972                       # The number of squashed insts skipped by commit
system.switch_cpus0.commit.commitNonSpecStalls        33068                       # The number of times commit has been forced to stall to communicate backwards
system.switch_cpus0.commit.branchMispredicts      2034658                       # The number of times a branch was mispredicted
system.switch_cpus0.commit.committed_per_cycle::samples    133305439                       # Number of insts commited each cycle
system.switch_cpus0.commit.committed_per_cycle::mean     0.921263                       # Number of insts commited each cycle
system.switch_cpus0.commit.committed_per_cycle::stdev     1.693902                       # Number of insts commited each cycle
system.switch_cpus0.commit.committed_per_cycle::underflows            0      0.00%      0.00% # Number of insts commited each cycle
system.switch_cpus0.commit.committed_per_cycle::0     82933161     62.21%     62.21% # Number of insts commited each cycle
system.switch_cpus0.commit.committed_per_cycle::1     23568740     17.68%     79.89% # Number of insts commited each cycle
system.switch_cpus0.commit.committed_per_cycle::2     10384838      7.79%     87.68% # Number of insts commited each cycle
system.switch_cpus0.commit.committed_per_cycle::3      5443192      4.08%     91.77% # Number of insts commited each cycle
system.switch_cpus0.commit.committed_per_cycle::4      4336551      3.25%     95.02% # Number of insts commited each cycle
system.switch_cpus0.commit.committed_per_cycle::5      1559310      1.17%     96.19% # Number of insts commited each cycle
system.switch_cpus0.commit.committed_per_cycle::6      1324530      0.99%     97.18% # Number of insts commited each cycle
system.switch_cpus0.commit.committed_per_cycle::7       989427      0.74%     97.93% # Number of insts commited each cycle
system.switch_cpus0.commit.committed_per_cycle::8      2765690      2.07%    100.00% # Number of insts commited each cycle
system.switch_cpus0.commit.committed_per_cycle::overflows            0      0.00%    100.00% # Number of insts commited each cycle
system.switch_cpus0.commit.committed_per_cycle::min_value            0                       # Number of insts commited each cycle
system.switch_cpus0.commit.committed_per_cycle::max_value            8                       # Number of insts commited each cycle
system.switch_cpus0.commit.committed_per_cycle::total    133305439                       # Number of insts commited each cycle
system.switch_cpus0.commit.committedInsts    100000001                       # Number of instructions committed
system.switch_cpus0.commit.committedOps     122809435                       # Number of ops (including micro ops) committed
system.switch_cpus0.commit.swp_count                0                       # Number of s/w prefetches committed
system.switch_cpus0.commit.refs              18259741                       # Number of memory references committed
system.switch_cpus0.commit.loads             11233968                       # Number of loads committed
system.switch_cpus0.commit.membars              16534                       # Number of memory barriers committed
system.switch_cpus0.commit.branches          17645481                       # Number of branches committed
system.switch_cpus0.commit.fp_insts                 0                       # Number of committed floating point instructions.
system.switch_cpus0.commit.int_insts        110655596                       # Number of committed integer instructions.
system.switch_cpus0.commit.function_calls      2500197                       # Number of function calls committed.
system.switch_cpus0.commit.bw_lim_events      2765690                       # number cycles where commit BW limit reached
system.switch_cpus0.commit.bw_limited               0                       # number of insts not committed due to BW limits
system.switch_cpus0.rob.rob_reads           281868156                       # The number of ROB reads
system.switch_cpus0.rob.rob_writes          307140856                       # The number of ROB writes
system.switch_cpus0.timesIdled                  68593                       # Number of times that the entire CPU went into an idle state and unscheduled itself
system.switch_cpus0.idleCycles                3025925                       # Total number of cycles that the CPU has spent unscheduled due to idling
system.switch_cpus0.committedInsts          100000001                       # Number of Instructions Simulated
system.switch_cpus0.committedOps            122809435                       # Number of Ops (including micro ops) Simulated
system.switch_cpus0.committedInsts_total    100000001                       # Number of Instructions Simulated
system.switch_cpus0.cpi                      1.408152                       # CPI: Cycles Per Instruction
system.switch_cpus0.cpi_total                1.408152                       # CPI: Total CPI of All Threads
system.switch_cpus0.ipc                      0.710151                       # IPC: Instructions Per Cycle
system.switch_cpus0.ipc_total                0.710151                       # IPC: Total IPC of All Threads
system.switch_cpus0.int_regfile_reads       622027331                       # number of integer regfile reads
system.switch_cpus0.int_regfile_writes      190746113                       # number of integer regfile writes
system.switch_cpus0.misc_regfile_reads      145562060                       # number of misc regfile reads
system.switch_cpus0.misc_regfile_writes         33068                       # number of misc regfile writes
system.switch_cpus1.dtb.inst_hits                   0                       # ITB inst hits
system.switch_cpus1.dtb.inst_misses                 0                       # ITB inst misses
system.switch_cpus1.dtb.read_hits                   0                       # DTB read hits
system.switch_cpus1.dtb.read_misses                 0                       # DTB read misses
system.switch_cpus1.dtb.write_hits                  0                       # DTB write hits
system.switch_cpus1.dtb.write_misses                0                       # DTB write misses
system.switch_cpus1.dtb.flush_tlb                   0                       # Number of times complete TLB was flushed
system.switch_cpus1.dtb.flush_tlb_mva               0                       # Number of times TLB was flushed by MVA
system.switch_cpus1.dtb.flush_tlb_mva_asid            0                       # Number of times TLB was flushed by MVA & ASID
system.switch_cpus1.dtb.flush_tlb_asid              0                       # Number of times TLB was flushed by ASID
system.switch_cpus1.dtb.flush_entries               0                       # Number of entries that have been flushed from TLB
system.switch_cpus1.dtb.align_faults                0                       # Number of TLB faults due to alignment restrictions
system.switch_cpus1.dtb.prefetch_faults             0                       # Number of TLB faults due to prefetch
system.switch_cpus1.dtb.domain_faults               0                       # Number of TLB faults due to domain restrictions
system.switch_cpus1.dtb.perms_faults                0                       # Number of TLB faults due to permissions restrictions
system.switch_cpus1.dtb.read_accesses               0                       # DTB read accesses
system.switch_cpus1.dtb.write_accesses              0                       # DTB write accesses
system.switch_cpus1.dtb.inst_accesses               0                       # ITB inst accesses
system.switch_cpus1.dtb.hits                        0                       # DTB hits
system.switch_cpus1.dtb.misses                      0                       # DTB misses
system.switch_cpus1.dtb.accesses                    0                       # DTB accesses
system.switch_cpus1.itb.inst_hits                   0                       # ITB inst hits
system.switch_cpus1.itb.inst_misses                 0                       # ITB inst misses
system.switch_cpus1.itb.read_hits                   0                       # DTB read hits
system.switch_cpus1.itb.read_misses                 0                       # DTB read misses
system.switch_cpus1.itb.write_hits                  0                       # DTB write hits
system.switch_cpus1.itb.write_misses                0                       # DTB write misses
system.switch_cpus1.itb.flush_tlb                   0                       # Number of times complete TLB was flushed
system.switch_cpus1.itb.flush_tlb_mva               0                       # Number of times TLB was flushed by MVA
system.switch_cpus1.itb.flush_tlb_mva_asid            0                       # Number of times TLB was flushed by MVA & ASID
system.switch_cpus1.itb.flush_tlb_asid              0                       # Number of times TLB was flushed by ASID
system.switch_cpus1.itb.flush_entries               0                       # Number of entries that have been flushed from TLB
system.switch_cpus1.itb.align_faults                0                       # Number of TLB faults due to alignment restrictions
system.switch_cpus1.itb.prefetch_faults             0                       # Number of TLB faults due to prefetch
system.switch_cpus1.itb.domain_faults               0                       # Number of TLB faults due to domain restrictions
system.switch_cpus1.itb.perms_faults                0                       # Number of TLB faults due to permissions restrictions
system.switch_cpus1.itb.read_accesses               0                       # DTB read accesses
system.switch_cpus1.itb.write_accesses              0                       # DTB write accesses
system.switch_cpus1.itb.inst_accesses               0                       # ITB inst accesses
system.switch_cpus1.itb.hits                        0                       # DTB hits
system.switch_cpus1.itb.misses                      0                       # DTB misses
system.switch_cpus1.itb.accesses                    0                       # DTB accesses
system.cpu1.workload.num_syscalls                   0                       # Number of system calls
system.switch_cpus1.numCycles               140815174                       # number of cpu cycles simulated
system.switch_cpus1.numWorkItemsStarted             0                       # number of work items this cpu started
system.switch_cpus1.numWorkItemsCompleted            0                       # number of work items this cpu completed
system.switch_cpus1.BPredUnit.lookups        20895038                       # Number of BP lookups
system.switch_cpus1.BPredUnit.condPredicted     18315852                       # Number of conditional branches predicted
system.switch_cpus1.BPredUnit.condIncorrect      1625558                       # Number of conditional branches incorrect
system.switch_cpus1.BPredUnit.BTBLookups     10337751                       # Number of BTB lookups
system.switch_cpus1.BPredUnit.BTBHits        10087594                       # Number of BTB hits
system.switch_cpus1.BPredUnit.BTBCorrect            0                       # Number of correct BTB predictions (this stat may not work properly.
system.switch_cpus1.BPredUnit.usedRAS         1451394                       # Number of times the RAS was used to get a target.
system.switch_cpus1.BPredUnit.RASInCorrect        51215                       # Number of incorrect RAS predictions.
system.switch_cpus1.fetch.icacheStallCycles    110173676                       # Number of cycles fetch is stalled on an Icache miss
system.switch_cpus1.fetch.Insts             116154489                       # Number of instructions fetch has processed
system.switch_cpus1.fetch.Branches           20895038                       # Number of branches that fetch encountered
system.switch_cpus1.fetch.predictedBranches     11538988                       # Number of branches that fetch has predicted taken
system.switch_cpus1.fetch.Cycles             23618115                       # Number of cycles fetch has run and was not squashing or blocked
system.switch_cpus1.fetch.SquashCycles        5317405                       # Number of cycles fetch has spent squashing
system.switch_cpus1.fetch.BlockedCycles       1798928                       # Number of cycles fetch has spent blocked
system.switch_cpus1.fetch.CacheLines         12557176                       # Number of cache lines fetched
system.switch_cpus1.fetch.IcacheSquashes      1025617                       # Number of outstanding Icache misses that were squashed
system.switch_cpus1.fetch.rateDist::samples    139273059                       # Number of instructions fetched each cycle (Total)
system.switch_cpus1.fetch.rateDist::mean     0.948241                       # Number of instructions fetched each cycle (Total)
system.switch_cpus1.fetch.rateDist::stdev     2.317407                       # Number of instructions fetched each cycle (Total)
system.switch_cpus1.fetch.rateDist::underflows            0      0.00%      0.00% # Number of instructions fetched each cycle (Total)
system.switch_cpus1.fetch.rateDist::0       115654944     83.04%     83.04% # Number of instructions fetched each cycle (Total)
system.switch_cpus1.fetch.rateDist::1         1185233      0.85%     83.89% # Number of instructions fetched each cycle (Total)
system.switch_cpus1.fetch.rateDist::2         2172658      1.56%     85.45% # Number of instructions fetched each cycle (Total)
system.switch_cpus1.fetch.rateDist::3         1819069      1.31%     86.76% # Number of instructions fetched each cycle (Total)
system.switch_cpus1.fetch.rateDist::4         3347647      2.40%     89.16% # Number of instructions fetched each cycle (Total)
system.switch_cpus1.fetch.rateDist::5         3622943      2.60%     91.76% # Number of instructions fetched each cycle (Total)
system.switch_cpus1.fetch.rateDist::6          787417      0.57%     92.33% # Number of instructions fetched each cycle (Total)
system.switch_cpus1.fetch.rateDist::7          618284      0.44%     92.77% # Number of instructions fetched each cycle (Total)
system.switch_cpus1.fetch.rateDist::8        10064864      7.23%    100.00% # Number of instructions fetched each cycle (Total)
system.switch_cpus1.fetch.rateDist::overflows            0      0.00%    100.00% # Number of instructions fetched each cycle (Total)
system.switch_cpus1.fetch.rateDist::min_value            0                       # Number of instructions fetched each cycle (Total)
system.switch_cpus1.fetch.rateDist::max_value            8                       # Number of instructions fetched each cycle (Total)
system.switch_cpus1.fetch.rateDist::total    139273059                       # Number of instructions fetched each cycle (Total)
system.switch_cpus1.fetch.branchRate         0.148386                       # Number of branch fetches per cycle
system.switch_cpus1.fetch.rate               0.824872                       # Number of inst fetches per cycle
system.switch_cpus1.decode.IdleCycles       109313637                       # Number of cycles decode is idle
system.switch_cpus1.decode.BlockedCycles      2837416                       # Number of cycles decode is blocked
system.switch_cpus1.decode.RunCycles         23421110                       # Number of cycles decode is running
system.switch_cpus1.decode.UnblockCycles        23402                       # Number of cycles decode is unblocking
system.switch_cpus1.decode.SquashCycles       3677490                       # Number of cycles decode is squashing
system.switch_cpus1.decode.BranchResolved      2239799                       # Number of times decode resolved a branch
system.switch_cpus1.decode.BranchMispred         4851                       # Number of times decode detected a branch misprediction
system.switch_cpus1.decode.DecodedInsts     131041229                       # Number of instructions handled by decode
system.switch_cpus1.decode.SquashedInsts         1319                       # Number of squashed instructions handled by decode
system.switch_cpus1.rename.SquashCycles       3677490                       # Number of cycles rename is squashing
system.switch_cpus1.rename.IdleCycles       109751921                       # Number of cycles rename is idle
system.switch_cpus1.rename.BlockCycles        1325872                       # Number of cycles rename is blocking
system.switch_cpus1.rename.serializeStallCycles       730454                       # count of cycles rename stalled for serializing inst
system.switch_cpus1.rename.RunCycles         22994860                       # Number of cycles rename is running
system.switch_cpus1.rename.UnblockCycles       792458                       # Number of cycles rename is unblocking
system.switch_cpus1.rename.RenamedInsts     130113816                       # Number of instructions processed by rename
system.switch_cpus1.rename.ROBFullEvents            4                       # Number of times rename has blocked due to ROB full
system.switch_cpus1.rename.IQFullEvents         82583                       # Number of times rename has blocked due to IQ full
system.switch_cpus1.rename.LSQFullEvents       478817                       # Number of times rename has blocked due to LSQ full
system.switch_cpus1.rename.RenamedOperands    172777605                       # Number of destination operands rename has renamed
system.switch_cpus1.rename.RenameLookups    590317133                       # Number of register rename lookups that rename has made
system.switch_cpus1.rename.int_rename_lookups    590317133                       # Number of integer rename lookups
system.switch_cpus1.rename.CommittedMaps    139425789                       # Number of HB maps that are committed
system.switch_cpus1.rename.UndoneMaps        33351810                       # Number of HB maps that are undone due to squashing
system.switch_cpus1.rename.serializingInsts        18546                       # count of serializing insts renamed
system.switch_cpus1.rename.tempSerializingInsts         9278                       # count of temporary serializing insts renamed
system.switch_cpus1.rename.skidInsts          2510592                       # count of insts added to the skid buffer
system.switch_cpus1.memDep0.insertedLoads     21687207                       # Number of loads inserted to the mem dependence unit.
system.switch_cpus1.memDep0.insertedStores      4199980                       # Number of stores inserted to the mem dependence unit.
system.switch_cpus1.memDep0.conflictingLoads        77564                       # Number of conflicting loads.
system.switch_cpus1.memDep0.conflictingStores       934945                       # Number of conflicting stores.
system.switch_cpus1.iq.iqInstsAdded         128599546                       # Number of instructions added to the IQ (excludes non-spec)
system.switch_cpus1.iq.iqNonSpecInstsAdded        18544                       # Number of non-speculative instructions added to the IQ
system.switch_cpus1.iq.iqInstsIssued        120830131                       # Number of instructions issued
system.switch_cpus1.iq.iqSquashedInstsIssued        97573                       # Number of squashed instructions issued
system.switch_cpus1.iq.iqSquashedInstsExamined     21298799                       # Number of squashed instructions iterated over during squash; mainly for profiling
system.switch_cpus1.iq.iqSquashedOperandsExamined     45705762                       # Number of squashed operands that are examined and possibly removed from graph
system.switch_cpus1.iq.iqSquashedNonSpecRemoved           12                       # Number of squashed non-spec instructions that were removed
system.switch_cpus1.iq.issued_per_cycle::samples    139273059                       # Number of insts issued each cycle
system.switch_cpus1.iq.issued_per_cycle::mean     0.867577                       # Number of insts issued each cycle
system.switch_cpus1.iq.issued_per_cycle::stdev     1.478397                       # Number of insts issued each cycle
system.switch_cpus1.iq.issued_per_cycle::underflows            0      0.00%      0.00% # Number of insts issued each cycle
system.switch_cpus1.iq.issued_per_cycle::0     88983209     63.89%     63.89% # Number of insts issued each cycle
system.switch_cpus1.iq.issued_per_cycle::1     20481668     14.71%     78.60% # Number of insts issued each cycle
system.switch_cpus1.iq.issued_per_cycle::2     10277306      7.38%     85.98% # Number of insts issued each cycle
system.switch_cpus1.iq.issued_per_cycle::3      6750855      4.85%     90.82% # Number of insts issued each cycle
system.switch_cpus1.iq.issued_per_cycle::4      7028854      5.05%     95.87% # Number of insts issued each cycle
system.switch_cpus1.iq.issued_per_cycle::5      3640496      2.61%     98.48% # Number of insts issued each cycle
system.switch_cpus1.iq.issued_per_cycle::6      1628347      1.17%     99.65% # Number of insts issued each cycle
system.switch_cpus1.iq.issued_per_cycle::7       405284      0.29%     99.94% # Number of insts issued each cycle
system.switch_cpus1.iq.issued_per_cycle::8        77040      0.06%    100.00% # Number of insts issued each cycle
system.switch_cpus1.iq.issued_per_cycle::overflows            0      0.00%    100.00% # Number of insts issued each cycle
system.switch_cpus1.iq.issued_per_cycle::min_value            0                       # Number of insts issued each cycle
system.switch_cpus1.iq.issued_per_cycle::max_value            8                       # Number of insts issued each cycle
system.switch_cpus1.iq.issued_per_cycle::total    139273059                       # Number of insts issued each cycle
system.switch_cpus1.iq.fu_full::No_OpClass            0      0.00%      0.00% # attempts to use FU when none available
system.switch_cpus1.iq.fu_full::IntAlu         302157     59.97%     59.97% # attempts to use FU when none available
system.switch_cpus1.iq.fu_full::IntMult             0      0.00%     59.97% # attempts to use FU when none available
system.switch_cpus1.iq.fu_full::IntDiv              0      0.00%     59.97% # attempts to use FU when none available
system.switch_cpus1.iq.fu_full::FloatAdd            0      0.00%     59.97% # attempts to use FU when none available
system.switch_cpus1.iq.fu_full::FloatCmp            0      0.00%     59.97% # attempts to use FU when none available
system.switch_cpus1.iq.fu_full::FloatCvt            0      0.00%     59.97% # attempts to use FU when none available
system.switch_cpus1.iq.fu_full::FloatMult            0      0.00%     59.97% # attempts to use FU when none available
system.switch_cpus1.iq.fu_full::FloatDiv            0      0.00%     59.97% # attempts to use FU when none available
system.switch_cpus1.iq.fu_full::FloatSqrt            0      0.00%     59.97% # attempts to use FU when none available
system.switch_cpus1.iq.fu_full::SimdAdd             0      0.00%     59.97% # attempts to use FU when none available
system.switch_cpus1.iq.fu_full::SimdAddAcc            0      0.00%     59.97% # attempts to use FU when none available
system.switch_cpus1.iq.fu_full::SimdAlu             0      0.00%     59.97% # attempts to use FU when none available
system.switch_cpus1.iq.fu_full::SimdCmp             0      0.00%     59.97% # attempts to use FU when none available
system.switch_cpus1.iq.fu_full::SimdCvt             0      0.00%     59.97% # attempts to use FU when none available
system.switch_cpus1.iq.fu_full::SimdMisc            0      0.00%     59.97% # attempts to use FU when none available
system.switch_cpus1.iq.fu_full::SimdMult            0      0.00%     59.97% # attempts to use FU when none available
system.switch_cpus1.iq.fu_full::SimdMultAcc            0      0.00%     59.97% # attempts to use FU when none available
system.switch_cpus1.iq.fu_full::SimdShift            0      0.00%     59.97% # attempts to use FU when none available
system.switch_cpus1.iq.fu_full::SimdShiftAcc            0      0.00%     59.97% # attempts to use FU when none available
system.switch_cpus1.iq.fu_full::SimdSqrt            0      0.00%     59.97% # attempts to use FU when none available
system.switch_cpus1.iq.fu_full::SimdFloatAdd            0      0.00%     59.97% # attempts to use FU when none available
system.switch_cpus1.iq.fu_full::SimdFloatAlu            0      0.00%     59.97% # attempts to use FU when none available
system.switch_cpus1.iq.fu_full::SimdFloatCmp            0      0.00%     59.97% # attempts to use FU when none available
system.switch_cpus1.iq.fu_full::SimdFloatCvt            0      0.00%     59.97% # attempts to use FU when none available
system.switch_cpus1.iq.fu_full::SimdFloatDiv            0      0.00%     59.97% # attempts to use FU when none available
system.switch_cpus1.iq.fu_full::SimdFloatMisc            0      0.00%     59.97% # attempts to use FU when none available
system.switch_cpus1.iq.fu_full::SimdFloatMult            0      0.00%     59.97% # attempts to use FU when none available
system.switch_cpus1.iq.fu_full::SimdFloatMultAcc            0      0.00%     59.97% # attempts to use FU when none available
system.switch_cpus1.iq.fu_full::SimdFloatSqrt            0      0.00%     59.97% # attempts to use FU when none available
system.switch_cpus1.iq.fu_full::MemRead        126289     25.07%     85.04% # attempts to use FU when none available
system.switch_cpus1.iq.fu_full::MemWrite        75389     14.96%    100.00% # attempts to use FU when none available
system.switch_cpus1.iq.fu_full::IprAccess            0      0.00%    100.00% # attempts to use FU when none available
system.switch_cpus1.iq.fu_full::InstPrefetch            0      0.00%    100.00% # attempts to use FU when none available
system.switch_cpus1.iq.FU_type_0::No_OpClass            0      0.00%      0.00% # Type of FU issued
system.switch_cpus1.iq.FU_type_0::IntAlu     95358655     78.92%     78.92% # Type of FU issued
system.switch_cpus1.iq.FU_type_0::IntMult      1010688      0.84%     79.76% # Type of FU issued
system.switch_cpus1.iq.FU_type_0::IntDiv            0      0.00%     79.76% # Type of FU issued
system.switch_cpus1.iq.FU_type_0::FloatAdd            0      0.00%     79.76% # Type of FU issued
system.switch_cpus1.iq.FU_type_0::FloatCmp            0      0.00%     79.76% # Type of FU issued
system.switch_cpus1.iq.FU_type_0::FloatCvt            0      0.00%     79.76% # Type of FU issued
system.switch_cpus1.iq.FU_type_0::FloatMult            0      0.00%     79.76% # Type of FU issued
system.switch_cpus1.iq.FU_type_0::FloatDiv            0      0.00%     79.76% # Type of FU issued
system.switch_cpus1.iq.FU_type_0::FloatSqrt            0      0.00%     79.76% # Type of FU issued
system.switch_cpus1.iq.FU_type_0::SimdAdd            0      0.00%     79.76% # Type of FU issued
system.switch_cpus1.iq.FU_type_0::SimdAddAcc            0      0.00%     79.76% # Type of FU issued
system.switch_cpus1.iq.FU_type_0::SimdAlu            0      0.00%     79.76% # Type of FU issued
system.switch_cpus1.iq.FU_type_0::SimdCmp            0      0.00%     79.76% # Type of FU issued
system.switch_cpus1.iq.FU_type_0::SimdCvt            0      0.00%     79.76% # Type of FU issued
system.switch_cpus1.iq.FU_type_0::SimdMisc            0      0.00%     79.76% # Type of FU issued
system.switch_cpus1.iq.FU_type_0::SimdMult            0      0.00%     79.76% # Type of FU issued
system.switch_cpus1.iq.FU_type_0::SimdMultAcc            0      0.00%     79.76% # Type of FU issued
system.switch_cpus1.iq.FU_type_0::SimdShift            0      0.00%     79.76% # Type of FU issued
system.switch_cpus1.iq.FU_type_0::SimdShiftAcc            0      0.00%     79.76% # Type of FU issued
system.switch_cpus1.iq.FU_type_0::SimdSqrt            0      0.00%     79.76% # Type of FU issued
system.switch_cpus1.iq.FU_type_0::SimdFloatAdd            0      0.00%     79.76% # Type of FU issued
system.switch_cpus1.iq.FU_type_0::SimdFloatAlu            0      0.00%     79.76% # Type of FU issued
system.switch_cpus1.iq.FU_type_0::SimdFloatCmp            0      0.00%     79.76% # Type of FU issued
system.switch_cpus1.iq.FU_type_0::SimdFloatCvt            0      0.00%     79.76% # Type of FU issued
system.switch_cpus1.iq.FU_type_0::SimdFloatDiv            0      0.00%     79.76% # Type of FU issued
system.switch_cpus1.iq.FU_type_0::SimdFloatMisc         9268      0.01%     79.76% # Type of FU issued
system.switch_cpus1.iq.FU_type_0::SimdFloatMult            0      0.00%     79.76% # Type of FU issued
system.switch_cpus1.iq.FU_type_0::SimdFloatMultAcc            0      0.00%     79.76% # Type of FU issued
system.switch_cpus1.iq.FU_type_0::SimdFloatSqrt            0      0.00%     79.76% # Type of FU issued
system.switch_cpus1.iq.FU_type_0::MemRead     20281953     16.79%     96.55% # Type of FU issued
system.switch_cpus1.iq.FU_type_0::MemWrite      4169567      3.45%    100.00% # Type of FU issued
system.switch_cpus1.iq.FU_type_0::IprAccess            0      0.00%    100.00% # Type of FU issued
system.switch_cpus1.iq.FU_type_0::InstPrefetch            0      0.00%    100.00% # Type of FU issued
system.switch_cpus1.iq.FU_type_0::total     120830131                       # Type of FU issued
system.switch_cpus1.iq.rate                  0.858076                       # Inst issue rate
system.switch_cpus1.iq.fu_busy_cnt             503835                       # FU busy when requested
system.switch_cpus1.iq.fu_busy_rate          0.004170                       # FU busy rate (busy events/executed inst)
system.switch_cpus1.iq.int_inst_queue_reads    381534729                       # Number of integer instruction queue reads
system.switch_cpus1.iq.int_inst_queue_writes    149917180                       # Number of integer instruction queue writes
system.switch_cpus1.iq.int_inst_queue_wakeup_accesses    118101898                       # Number of integer instruction queue wakeup accesses
system.switch_cpus1.iq.fp_inst_queue_reads            0                       # Number of floating instruction queue reads
system.switch_cpus1.iq.fp_inst_queue_writes            0                       # Number of floating instruction queue writes
system.switch_cpus1.iq.fp_inst_queue_wakeup_accesses            0                       # Number of floating instruction queue wakeup accesses
system.switch_cpus1.iq.int_alu_accesses     121333966                       # Number of integer alu accesses
system.switch_cpus1.iq.fp_alu_accesses              0                       # Number of floating point alu accesses
system.switch_cpus1.iew.lsq.thread0.forwLoads       226399                       # Number of loads that had data forwarded from stores
system.switch_cpus1.iew.lsq.thread0.invAddrLoads            0                       # Number of loads ignored due to an invalid address
system.switch_cpus1.iew.lsq.thread0.squashedLoads      3913009                       # Number of loads squashed
system.switch_cpus1.iew.lsq.thread0.ignoredResponses           74                       # Number of memory responses ignored because the instruction is squashed
system.switch_cpus1.iew.lsq.thread0.memOrderViolation          291                       # Number of memory ordering violations
system.switch_cpus1.iew.lsq.thread0.squashedStores       130390                       # Number of stores squashed
system.switch_cpus1.iew.lsq.thread0.invAddrSwpfs            0                       # Number of software prefetches ignored due to an invalid address
system.switch_cpus1.iew.lsq.thread0.blockedLoads            0                       # Number of blocked loads due to partial load-store forwarding
system.switch_cpus1.iew.lsq.thread0.rescheduledLoads            0                       # Number of loads that were rescheduled
system.switch_cpus1.iew.lsq.thread0.cacheBlocked            0                       # Number of times an access to memory failed due to the cache being blocked
system.switch_cpus1.iew.iewIdleCycles               0                       # Number of cycles IEW is idle
system.switch_cpus1.iew.iewSquashCycles       3677490                       # Number of cycles IEW is squashing
system.switch_cpus1.iew.iewBlockCycles         865210                       # Number of cycles IEW is blocking
system.switch_cpus1.iew.iewUnblockCycles        47837                       # Number of cycles IEW is unblocking
system.switch_cpus1.iew.iewDispatchedInsts    128618090                       # Number of instructions dispatched to IQ
system.switch_cpus1.iew.iewDispSquashedInsts        45604                       # Number of squashed instructions skipped by dispatch
system.switch_cpus1.iew.iewDispLoadInsts     21687207                       # Number of dispatched load instructions
system.switch_cpus1.iew.iewDispStoreInsts      4199980                       # Number of dispatched store instructions
system.switch_cpus1.iew.iewDispNonSpecInsts         9278                       # Number of dispatched non-speculative instructions
system.switch_cpus1.iew.iewIQFullEvents         31613                       # Number of times the IQ has become full, causing a stall
system.switch_cpus1.iew.iewLSQFullEvents          170                       # Number of times the LSQ has become full, causing a stall
system.switch_cpus1.iew.memOrderViolationEvents          291                       # Number of memory order violations
system.switch_cpus1.iew.predictedTakenIncorrect       785462                       # Number of branches that were predicted taken incorrectly
system.switch_cpus1.iew.predictedNotTakenIncorrect       966487                       # Number of branches that were predicted not taken incorrectly
system.switch_cpus1.iew.branchMispredicts      1751949                       # Number of branch mispredicts detected at execute
system.switch_cpus1.iew.iewExecutedInsts    119536000                       # Number of executed instructions
system.switch_cpus1.iew.iewExecLoadInsts     19970581                       # Number of load instructions executed
system.switch_cpus1.iew.iewExecSquashedInsts      1294131                       # Number of squashed instructions skipped in execute
system.switch_cpus1.iew.exec_swp                    0                       # number of swp insts executed
system.switch_cpus1.iew.exec_nop                    0                       # number of nop insts executed
system.switch_cpus1.iew.exec_refs            24139978                       # number of memory reference insts executed
system.switch_cpus1.iew.exec_branches        18416314                       # Number of branches executed
system.switch_cpus1.iew.exec_stores           4169397                       # Number of stores executed
system.switch_cpus1.iew.exec_rate            0.848886                       # Inst execution rate
system.switch_cpus1.iew.wb_sent             118208559                       # cumulative count of insts sent to commit
system.switch_cpus1.iew.wb_count            118101898                       # cumulative count of insts written-back
system.switch_cpus1.iew.wb_producers         68219130                       # num instructions producing a value
system.switch_cpus1.iew.wb_consumers        161858882                       # num instructions consuming a value
system.switch_cpus1.iew.wb_penalized                0                       # number of instrctions required to write to 'other' IQ
system.switch_cpus1.iew.wb_rate              0.838702                       # insts written-back per cycle
system.switch_cpus1.iew.wb_fanout            0.421473                       # average fanout of values written-back
system.switch_cpus1.iew.wb_penalized_rate            0                       # fraction of instructions written-back that wrote to 'other' IQ
system.switch_cpus1.commit.commitCommittedInsts     93708059                       # The number of committed instructions
system.switch_cpus1.commit.commitCommittedOps    106422604                       # The number of committed instructions
system.switch_cpus1.commit.commitSquashedInsts     22196352                       # The number of squashed insts skipped by commit
system.switch_cpus1.commit.commitNonSpecStalls        18532                       # The number of times commit has been forced to stall to communicate backwards
system.switch_cpus1.commit.branchMispredicts      1629992                       # The number of times a branch was mispredicted
system.switch_cpus1.commit.committed_per_cycle::samples    135595568                       # Number of insts commited each cycle
system.switch_cpus1.commit.committed_per_cycle::mean     0.784853                       # Number of insts commited each cycle
system.switch_cpus1.commit.committed_per_cycle::stdev     1.660962                       # Number of insts commited each cycle
system.switch_cpus1.commit.committed_per_cycle::underflows            0      0.00%      0.00% # Number of insts commited each cycle
system.switch_cpus1.commit.committed_per_cycle::0     96081315     70.86%     70.86% # Number of insts commited each cycle
system.switch_cpus1.commit.committed_per_cycle::1     15325444     11.30%     82.16% # Number of insts commited each cycle
system.switch_cpus1.commit.committed_per_cycle::2     11088948      8.18%     90.34% # Number of insts commited each cycle
system.switch_cpus1.commit.committed_per_cycle::3      2477037      1.83%     92.17% # Number of insts commited each cycle
system.switch_cpus1.commit.committed_per_cycle::4      2816980      2.08%     94.24% # Number of insts commited each cycle
system.switch_cpus1.commit.committed_per_cycle::5       999639      0.74%     94.98% # Number of insts commited each cycle
system.switch_cpus1.commit.committed_per_cycle::6      4193062      3.09%     98.07% # Number of insts commited each cycle
system.switch_cpus1.commit.committed_per_cycle::7       841478      0.62%     98.69% # Number of insts commited each cycle
system.switch_cpus1.commit.committed_per_cycle::8      1771665      1.31%    100.00% # Number of insts commited each cycle
system.switch_cpus1.commit.committed_per_cycle::overflows            0      0.00%    100.00% # Number of insts commited each cycle
system.switch_cpus1.commit.committed_per_cycle::min_value            0                       # Number of insts commited each cycle
system.switch_cpus1.commit.committed_per_cycle::max_value            8                       # Number of insts commited each cycle
system.switch_cpus1.commit.committed_per_cycle::total    135595568                       # Number of insts commited each cycle
system.switch_cpus1.commit.committedInsts     93708059                       # Number of instructions committed
system.switch_cpus1.commit.committedOps     106422604                       # Number of ops (including micro ops) committed
system.switch_cpus1.commit.swp_count                0                       # Number of s/w prefetches committed
system.switch_cpus1.commit.refs              21843787                       # Number of memory references committed
[...]
system.cpu2.icache.ReadReq_avg_miss_latency::total 148663.950000                       # average ReadReq miss latency
system.cpu2.icache.demand_avg_miss_latency::switch_cpus2.inst 148663.950000                       # average overall miss latency
system.cpu2.icache.demand_avg_miss_latency::total 148663.950000                       # average overall miss latency
system.cpu2.icache.overall_avg_miss_latency::switch_cpus2.inst 148663.950000                       # average overall miss latency
system.cpu2.icache.overall_avg_miss_latency::total 148663.950000                       # average overall miss latency
system.cpu2.icache.blocked_cycles::no_mshrs            0                       # number of cycles access was blocked
system.cpu2.icache.blocked_cycles::no_targets            0                       # number of cycles access was blocked
system.cpu2.icache.blocked::no_mshrs                0                       # number of cycles access was blocked
system.cpu2.icache.blocked::no_targets              0                       # number of cycles access was blocked
system.cpu2.icache.avg_blocked_cycles::no_mshrs          nan                       # average number of cycles each access was blocked
system.cpu2.icache.avg_blocked_cycles::no_targets          nan                       # average number of cycles each access was blocked
system.cpu2.icache.fast_writes                      0                       # number of fast writes performed
system.cpu2.icache.cache_copies                     0                       # number of cache copies performed
system.cpu2.icache.ReadReq_mshr_hits::switch_cpus2.inst            7                       # number of ReadReq MSHR hits
system.cpu2.icache.ReadReq_mshr_hits::total            7                       # number of ReadReq MSHR hits
system.cpu2.icache.demand_mshr_hits::switch_cpus2.inst            7                       # number of demand (read+write) MSHR hits
system.cpu2.icache.demand_mshr_hits::total            7                       # number of demand (read+write) MSHR hits
system.cpu2.icache.overall_mshr_hits::switch_cpus2.inst            7                       # number of overall MSHR hits
system.cpu2.icache.overall_mshr_hits::total            7                       # number of overall MSHR hits
system.cpu2.icache.ReadReq_mshr_misses::switch_cpus2.inst           13                       # number of ReadReq MSHR misses
system.cpu2.icache.ReadReq_mshr_misses::total           13                       # number of ReadReq MSHR misses
system.cpu2.icache.demand_mshr_misses::switch_cpus2.inst           13                       # number of demand (read+write) MSHR misses
system.cpu2.icache.demand_mshr_misses::total           13                       # number of demand (read+write) MSHR misses
system.cpu2.icache.overall_mshr_misses::switch_cpus2.inst           13                       # number of overall MSHR misses
system.cpu2.icache.overall_mshr_misses::total           13                       # number of overall MSHR misses
system.cpu2.icache.ReadReq_mshr_miss_latency::switch_cpus2.inst      2139259                       # number of ReadReq MSHR miss cycles
system.cpu2.icache.ReadReq_mshr_miss_latency::total      2139259                       # number of ReadReq MSHR miss cycles
system.cpu2.icache.demand_mshr_miss_latency::switch_cpus2.inst      2139259                       # number of demand (read+write) MSHR miss cycles
system.cpu2.icache.demand_mshr_miss_latency::total      2139259                       # number of demand (read+write) MSHR miss cycles
system.cpu2.icache.overall_mshr_miss_latency::switch_cpus2.inst      2139259                       # number of overall MSHR miss cycles
system.cpu2.icache.overall_mshr_miss_latency::total      2139259                       # number of overall MSHR miss cycles
system.cpu2.icache.ReadReq_mshr_miss_rate::switch_cpus2.inst     0.000001                       # mshr miss rate for ReadReq accesses
system.cpu2.icache.ReadReq_mshr_miss_rate::total     0.000001                       # mshr miss rate for ReadReq accesses
system.cpu2.icache.demand_mshr_miss_rate::switch_cpus2.inst     0.000001                       # mshr miss rate for demand accesses
system.cpu2.icache.demand_mshr_miss_rate::total     0.000001                       # mshr miss rate for demand accesses
system.cpu2.icache.overall_mshr_miss_rate::switch_cpus2.inst     0.000001                       # mshr miss rate for overall accesses
system.cpu2.icache.overall_mshr_miss_rate::total     0.000001                       # mshr miss rate for overall accesses
system.cpu2.icache.ReadReq_avg_mshr_miss_latency::switch_cpus2.inst 164558.384615                       # average ReadReq mshr miss latency
system.cpu2.icache.ReadReq_avg_mshr_miss_latency::total 164558.384615                       # average ReadReq mshr miss latency
system.cpu2.icache.demand_avg_mshr_miss_latency::switch_cpus2.inst 164558.384615                       # average overall mshr miss latency
system.cpu2.icache.demand_avg_mshr_miss_latency::total 164558.384615                       # average overall mshr miss latency
system.cpu2.icache.overall_avg_mshr_miss_latency::switch_cpus2.inst 164558.384615                       # average overall mshr miss latency
system.cpu2.icache.overall_avg_mshr_miss_latency::total 164558.384615                       # average overall mshr miss latency
system.cpu2.icache.no_allocate_misses               0                       # Number of misses that were no-allocate
system.cpu2.dcache.replacements                 50393                       # number of replacements
system.cpu2.dcache.tagsinuse                      256                       # Cycle average of tags in use
system.cpu2.dcache.total_refs               171399483                       # Total number of references to valid blocks.
system.cpu2.dcache.sampled_refs                 50649                       # Sample count of references to valid blocks.
system.cpu2.dcache.avg_refs               3384.064503                       # Average number of references to valid blocks.
system.cpu2.dcache.warmup_cycle                     0                       # Cycle when the warmup percentage was hit.
system.cpu2.dcache.occ_blocks::switch_cpus2.data   233.165829                       # Average occupied blocks per requestor
system.cpu2.dcache.occ_blocks::cpu2.data    22.834171                       # Average occupied blocks per requestor
system.cpu2.dcache.occ_percent::switch_cpus2.data     0.910804                       # Average percentage of cache occupancy
system.cpu2.dcache.occ_percent::cpu2.data     0.089196                       # Average percentage of cache occupancy
system.cpu2.dcache.occ_percent::total               1                       # Average percentage of cache occupancy
system.cpu2.dcache.ReadReq_hits::switch_cpus2.data      8771609                       # number of ReadReq hits
system.cpu2.dcache.ReadReq_hits::total        8771609                       # number of ReadReq hits
system.cpu2.dcache.WriteReq_hits::switch_cpus2.data      6908326                       # number of WriteReq hits
system.cpu2.dcache.WriteReq_hits::total       6908326                       # number of WriteReq hits
system.cpu2.dcache.LoadLockedReq_hits::switch_cpus2.data        16920                       # number of LoadLockedReq hits
system.cpu2.dcache.LoadLockedReq_hits::total        16920                       # number of LoadLockedReq hits
system.cpu2.dcache.StoreCondReq_hits::switch_cpus2.data        16026                       # number of StoreCondReq hits
system.cpu2.dcache.StoreCondReq_hits::total        16026                       # number of StoreCondReq hits
system.cpu2.dcache.demand_hits::switch_cpus2.data     15679935                       # number of demand (read+write) hits
system.cpu2.dcache.demand_hits::total        15679935                       # number of demand (read+write) hits
system.cpu2.dcache.overall_hits::switch_cpus2.data     15679935                       # number of overall hits
system.cpu2.dcache.overall_hits::total       15679935                       # number of overall hits
system.cpu2.dcache.ReadReq_misses::switch_cpus2.data       145807                       # number of ReadReq misses
system.cpu2.dcache.ReadReq_misses::total       145807                       # number of ReadReq misses
system.cpu2.dcache.WriteReq_misses::switch_cpus2.data         2764                       # number of WriteReq misses
system.cpu2.dcache.WriteReq_misses::total         2764                       # number of WriteReq misses
system.cpu2.dcache.demand_misses::switch_cpus2.data       148571                       # number of demand (read+write) misses
system.cpu2.dcache.demand_misses::total        148571                       # number of demand (read+write) misses
system.cpu2.dcache.overall_misses::switch_cpus2.data       148571                       # number of overall misses
system.cpu2.dcache.overall_misses::total       148571                       # number of overall misses
system.cpu2.dcache.ReadReq_miss_latency::switch_cpus2.data  16050203363                       # number of ReadReq miss cycles
system.cpu2.dcache.ReadReq_miss_latency::total  16050203363                       # number of ReadReq miss cycles
system.cpu2.dcache.WriteReq_miss_latency::switch_cpus2.data    424490632                       # number of WriteReq miss cycles
system.cpu2.dcache.WriteReq_miss_latency::total    424490632                       # number of WriteReq miss cycles
system.cpu2.dcache.demand_miss_latency::switch_cpus2.data  16474693995                       # number of demand (read+write) miss cycles
system.cpu2.dcache.demand_miss_latency::total  16474693995                       # number of demand (read+write) miss cycles
system.cpu2.dcache.overall_miss_latency::switch_cpus2.data  16474693995                       # number of overall miss cycles
system.cpu2.dcache.overall_miss_latency::total  16474693995                       # number of overall miss cycles
system.cpu2.dcache.ReadReq_accesses::switch_cpus2.data      8917416                       # number of ReadReq accesses(hits+misses)
system.cpu2.dcache.ReadReq_accesses::total      8917416                       # number of ReadReq accesses(hits+misses)
system.cpu2.dcache.WriteReq_accesses::switch_cpus2.data      6911090                       # number of WriteReq accesses(hits+misses)
system.cpu2.dcache.WriteReq_accesses::total      6911090                       # number of WriteReq accesses(hits+misses)
system.cpu2.dcache.LoadLockedReq_accesses::switch_cpus2.data        16920                       # number of LoadLockedReq accesses(hits+misses)
system.cpu2.dcache.LoadLockedReq_accesses::total        16920                       # number of LoadLockedReq accesses(hits+misses)
system.cpu2.dcache.StoreCondReq_accesses::switch_cpus2.data        16026                       # number of StoreCondReq accesses(hits+misses)
system.cpu2.dcache.StoreCondReq_accesses::total        16026                       # number of StoreCondReq accesses(hits+misses)
system.cpu2.dcache.demand_accesses::switch_cpus2.data     15828506                       # number of demand (read+write) accesses
system.cpu2.dcache.demand_accesses::total     15828506                       # number of demand (read+write) accesses
system.cpu2.dcache.overall_accesses::switch_cpus2.data     15828506                       # number of overall (read+write) accesses
system.cpu2.dcache.overall_accesses::total     15828506                       # number of overall (read+write) accesses
system.cpu2.dcache.ReadReq_miss_rate::switch_cpus2.data     0.016351                       # miss rate for ReadReq accesses
system.cpu2.dcache.ReadReq_miss_rate::total     0.016351                       # miss rate for ReadReq accesses
system.cpu2.dcache.WriteReq_miss_rate::switch_cpus2.data     0.000400                       # miss rate for WriteReq accesses
system.cpu2.dcache.WriteReq_miss_rate::total     0.000400                       # miss rate for WriteReq accesses
system.cpu2.dcache.demand_miss_rate::switch_cpus2.data     0.009386                       # miss rate for demand accesses
system.cpu2.dcache.demand_miss_rate::total     0.009386                       # miss rate for demand accesses
system.cpu2.dcache.overall_miss_rate::switch_cpus2.data     0.009386                       # miss rate for overall accesses
system.cpu2.dcache.overall_miss_rate::total     0.009386                       # miss rate for overall accesses
system.cpu2.dcache.ReadReq_avg_miss_latency::switch_cpus2.data 110078.414363                       # average ReadReq miss latency
system.cpu2.dcache.ReadReq_avg_miss_latency::total 110078.414363                       # average ReadReq miss latency
system.cpu2.dcache.WriteReq_avg_miss_latency::switch_cpus2.data 153578.376266                       # average WriteReq miss latency
system.cpu2.dcache.WriteReq_avg_miss_latency::total 153578.376266                       # average WriteReq miss latency
system.cpu2.dcache.demand_avg_miss_latency::switch_cpus2.data 110887.683296                       # average overall miss latency
system.cpu2.dcache.demand_avg_miss_latency::total 110887.683296                       # average overall miss latency
system.cpu2.dcache.overall_avg_miss_latency::switch_cpus2.data 110887.683296                       # average overall miss latency
system.cpu2.dcache.overall_avg_miss_latency::total 110887.683296                       # average overall miss latency
system.cpu2.dcache.blocked_cycles::no_mshrs            0                       # number of cycles access was blocked
system.cpu2.dcache.blocked_cycles::no_targets       588001                       # number of cycles access was blocked
system.cpu2.dcache.blocked::no_mshrs                0                       # number of cycles access was blocked
system.cpu2.dcache.blocked::no_targets              7                       # number of cycles access was blocked
system.cpu2.dcache.avg_blocked_cycles::no_mshrs          nan                       # average number of cycles each access was blocked
system.cpu2.dcache.avg_blocked_cycles::no_targets 84000.142857                       # average number of cycles each access was blocked
system.cpu2.dcache.fast_writes                      0                       # number of fast writes performed
system.cpu2.dcache.cache_copies                     0                       # number of cache copies performed
system.cpu2.dcache.writebacks::writebacks        22943                       # number of writebacks
system.cpu2.dcache.writebacks::total            22943                       # number of writebacks
system.cpu2.dcache.ReadReq_mshr_hits::switch_cpus2.data        95418                       # number of ReadReq MSHR hits
system.cpu2.dcache.ReadReq_mshr_hits::total        95418                       # number of ReadReq MSHR hits
system.cpu2.dcache.WriteReq_mshr_hits::switch_cpus2.data         2760                       # number of WriteReq MSHR hits
system.cpu2.dcache.WriteReq_mshr_hits::total         2760                       # number of WriteReq MSHR hits
system.cpu2.dcache.demand_mshr_hits::switch_cpus2.data        98178                       # number of demand (read+write) MSHR hits
system.cpu2.dcache.demand_mshr_hits::total        98178                       # number of demand (read+write) MSHR hits
system.cpu2.dcache.overall_mshr_hits::switch_cpus2.data        98178                       # number of overall MSHR hits
system.cpu2.dcache.overall_mshr_hits::total        98178                       # number of overall MSHR hits
system.cpu2.dcache.ReadReq_mshr_misses::switch_cpus2.data        50389                       # number of ReadReq MSHR misses
system.cpu2.dcache.ReadReq_mshr_misses::total        50389                       # number of ReadReq MSHR misses
system.cpu2.dcache.WriteReq_mshr_misses::switch_cpus2.data            4                       # number of WriteReq MSHR misses
system.cpu2.dcache.WriteReq_mshr_misses::total            4                       # number of WriteReq MSHR misses
system.cpu2.dcache.demand_mshr_misses::switch_cpus2.data        50393                       # number of demand (read+write) MSHR misses
system.cpu2.dcache.demand_mshr_misses::total        50393                       # number of demand (read+write) MSHR misses
system.cpu2.dcache.overall_mshr_misses::switch_cpus2.data        50393                       # number of overall MSHR misses
system.cpu2.dcache.overall_mshr_misses::total        50393                       # number of overall MSHR misses
system.cpu2.dcache.ReadReq_mshr_miss_latency::switch_cpus2.data   4574016464                       # number of ReadReq MSHR miss cycles
system.cpu2.dcache.ReadReq_mshr_miss_latency::total   4574016464                       # number of ReadReq MSHR miss cycles
system.cpu2.dcache.WriteReq_mshr_miss_latency::switch_cpus2.data       708132                       # number of WriteReq MSHR miss cycles
system.cpu2.dcache.WriteReq_mshr_miss_latency::total       708132                       # number of WriteReq MSHR miss cycles
system.cpu2.dcache.demand_mshr_miss_latency::switch_cpus2.data   4574724596                       # number of demand (read+write) MSHR miss cycles
system.cpu2.dcache.demand_mshr_miss_latency::total   4574724596                       # number of demand (read+write) MSHR miss cycles
system.cpu2.dcache.overall_mshr_miss_latency::switch_cpus2.data   4574724596                       # number of overall MSHR miss cycles
system.cpu2.dcache.overall_mshr_miss_latency::total   4574724596                       # number of overall MSHR miss cycles
system.cpu2.dcache.ReadReq_mshr_miss_rate::switch_cpus2.data     0.005651                       # mshr miss rate for ReadReq accesses
system.cpu2.dcache.ReadReq_mshr_miss_rate::total     0.005651                       # mshr miss rate for ReadReq accesses
system.cpu2.dcache.WriteReq_mshr_miss_rate::switch_cpus2.data     0.000001                       # mshr miss rate for WriteReq accesses
system.cpu2.dcache.WriteReq_mshr_miss_rate::total     0.000001                       # mshr miss rate for WriteReq accesses
system.cpu2.dcache.demand_mshr_miss_rate::switch_cpus2.data     0.003184                       # mshr miss rate for demand accesses
system.cpu2.dcache.demand_mshr_miss_rate::total     0.003184                       # mshr miss rate for demand accesses
system.cpu2.dcache.overall_mshr_miss_rate::switch_cpus2.data     0.003184                       # mshr miss rate for overall accesses
system.cpu2.dcache.overall_mshr_miss_rate::total     0.003184                       # mshr miss rate for overall accesses
system.cpu2.dcache.ReadReq_avg_mshr_miss_latency::switch_cpus2.data 90774.106730                       # average ReadReq mshr miss latency
system.cpu2.dcache.ReadReq_avg_mshr_miss_latency::total 90774.106730                       # average ReadReq mshr miss latency
system.cpu2.dcache.WriteReq_avg_mshr_miss_latency::switch_cpus2.data       177033                       # average WriteReq mshr miss latency
system.cpu2.dcache.WriteReq_avg_mshr_miss_latency::total       177033                       # average WriteReq mshr miss latency
system.cpu2.dcache.demand_avg_mshr_miss_latency::switch_cpus2.data 90780.953625                       # average overall mshr miss latency
system.cpu2.dcache.demand_avg_mshr_miss_latency::total 90780.953625                       # average overall mshr miss latency
system.cpu2.dcache.overall_avg_mshr_miss_latency::switch_cpus2.data 90780.953625                       # average overall mshr miss latency
system.cpu2.dcache.overall_avg_mshr_miss_latency::total 90780.953625                       # average overall mshr miss latency
system.cpu2.dcache.no_allocate_misses               0                       # Number of misses that were no-allocate

---------- End Simulation Statistics   ----------
