
---------- Begin Simulation Statistics ----------
sim_seconds                                  0.094021                       # Number of seconds simulated
sim_ticks                                 94021323183                       # Number of ticks simulated
final_tick                               606630526071                       # Number of ticks from beginning of simulation (restored from checkpoints and never reset)
sim_freq                                 1000000000000                       # Frequency of simulated ticks
host_inst_rate                                 315502                       # Simulator instruction rate (inst/s)
host_op_rate                                   405529                       # Simulator op (including micro ops) rate (op/s)
host_tick_rate                                1786523                       # Simulator tick rate (ticks/s)
host_mem_usage                               67623720                       # Number of bytes of host memory used
host_seconds                                 52628.12                       # Real time elapsed on the host
sim_insts                                 16604255740                       # Number of instructions simulated
sim_ops                                   21342253053                       # Number of ops (including micro ops) simulated
system.physmem.bytes_read::switch_cpus00.inst         4992                       # Number of bytes read from this memory
system.physmem.bytes_read::switch_cpus00.data      3673216                       # Number of bytes read from this memory
system.physmem.bytes_read::switch_cpus01.inst         5248                       # Number of bytes read from this memory
system.physmem.bytes_read::switch_cpus01.data      1636352                       # Number of bytes read from this memory
system.physmem.bytes_read::switch_cpus02.inst         4608                       # Number of bytes read from this memory
system.physmem.bytes_read::switch_cpus02.data      2271232                       # Number of bytes read from this memory
system.physmem.bytes_read::switch_cpus03.inst         4352                       # Number of bytes read from this memory
system.physmem.bytes_read::switch_cpus03.data      2250112                       # Number of bytes read from this memory
system.physmem.bytes_read::switch_cpus04.inst         4992                       # Number of bytes read from this memory
system.physmem.bytes_read::switch_cpus04.data      3348992                       # Number of bytes read from this memory
system.physmem.bytes_read::switch_cpus05.inst         4608                       # Number of bytes read from this memory
system.physmem.bytes_read::switch_cpus05.data      2254208                       # Number of bytes read from this memory
system.physmem.bytes_read::switch_cpus06.inst         4992                       # Number of bytes read from this memory
system.physmem.bytes_read::switch_cpus06.data      3319424                       # Number of bytes read from this memory
system.physmem.bytes_read::switch_cpus07.inst         4864                       # Number of bytes read from this memory
system.physmem.bytes_read::switch_cpus07.data      3628544                       # Number of bytes read from this memory
system.physmem.bytes_read::switch_cpus08.inst         4736                       # Number of bytes read from this memory
system.physmem.bytes_read::switch_cpus08.data      1298432                       # Number of bytes read from this memory
system.physmem.bytes_read::switch_cpus09.inst         4608                       # Number of bytes read from this memory
system.physmem.bytes_read::switch_cpus09.data      1260544                       # Number of bytes read from this memory
system.physmem.bytes_read::switch_cpus10.inst         4992                       # Number of bytes read from this memory
system.physmem.bytes_read::switch_cpus10.data      2265344                       # Number of bytes read from this memory
system.physmem.bytes_read::switch_cpus11.inst         5248                       # Number of bytes read from this memory
system.physmem.bytes_read::switch_cpus11.data      1607552                       # Number of bytes read from this memory
system.physmem.bytes_read::switch_cpus12.inst         4992                       # Number of bytes read from this memory
system.physmem.bytes_read::switch_cpus12.data      1271680                       # Number of bytes read from this memory
system.physmem.bytes_read::switch_cpus13.inst         4608                       # Number of bytes read from this memory
system.physmem.bytes_read::switch_cpus13.data      2244992                       # Number of bytes read from this memory
system.physmem.bytes_read::switch_cpus14.inst         5248                       # Number of bytes read from this memory
system.physmem.bytes_read::switch_cpus14.data      3339136                       # Number of bytes read from this memory
system.physmem.bytes_read::switch_cpus15.inst         4608                       # Number of bytes read from this memory
system.physmem.bytes_read::switch_cpus15.data      2244480                       # Number of bytes read from this memory
system.physmem.bytes_read::total             37991936                       # Number of bytes read from this memory
system.physmem.bytes_inst_read::switch_cpus00.inst         4992                       # Number of instructions bytes read from this memory
system.physmem.bytes_inst_read::switch_cpus01.inst         5248                       # Number of instructions bytes read from this memory
system.physmem.bytes_inst_read::switch_cpus02.inst         4608                       # Number of instructions bytes read from this memory
system.physmem.bytes_inst_read::switch_cpus03.inst         4352                       # Number of instructions bytes read from this memory
system.physmem.bytes_inst_read::switch_cpus04.inst         4992                       # Number of instructions bytes read from this memory
system.physmem.bytes_inst_read::switch_cpus05.inst         4608                       # Number of instructions bytes read from this memory
system.physmem.bytes_inst_read::switch_cpus06.inst         4992                       # Number of instructions bytes read from this memory
system.physmem.bytes_inst_read::switch_cpus07.inst         4864                       # Number of instructions bytes read from this memory
system.physmem.bytes_inst_read::switch_cpus08.inst         4736                       # Number of instructions bytes read from this memory
system.physmem.bytes_inst_read::switch_cpus09.inst         4608                       # Number of instructions bytes read from this memory
system.physmem.bytes_inst_read::switch_cpus10.inst         4992                       # Number of instructions bytes read from this memory
system.physmem.bytes_inst_read::switch_cpus11.inst         5248                       # Number of instructions bytes read from this memory
system.physmem.bytes_inst_read::switch_cpus12.inst         4992                       # Number of instructions bytes read from this memory
system.physmem.bytes_inst_read::switch_cpus13.inst         4608                       # Number of instructions bytes read from this memory
system.physmem.bytes_inst_read::switch_cpus14.inst         5248                       # Number of instructions bytes read from this memory
system.physmem.bytes_inst_read::switch_cpus15.inst         4608                       # Number of instructions bytes read from this memory
system.physmem.bytes_inst_read::total           77696                       # Number of instructions bytes read from this memory
system.physmem.bytes_written::writebacks      8504192                       # Number of bytes written to this memory
system.physmem.bytes_written::total           8504192                       # Number of bytes written to this memory
system.physmem.num_reads::switch_cpus00.inst           39                       # Number of read requests responded to by this memory
system.physmem.num_reads::switch_cpus00.data        28697                       # Number of read requests responded to by this memory
system.physmem.num_reads::switch_cpus01.inst           41                       # Number of read requests responded to by this memory
system.physmem.num_reads::switch_cpus01.data        12784                       # Number of read requests responded to by this memory
system.physmem.num_reads::switch_cpus02.inst           36                       # Number of read requests responded to by this memory
system.physmem.num_reads::switch_cpus02.data        17744                       # Number of read requests responded to by this memory
system.physmem.num_reads::switch_cpus03.inst           34                       # Number of read requests responded to by this memory
system.physmem.num_reads::switch_cpus03.data        17579                       # Number of read requests responded to by this memory
system.physmem.num_reads::switch_cpus04.inst           39                       # Number of read requests responded to by this memory
system.physmem.num_reads::switch_cpus04.data        26164                       # Number of read requests responded to by this memory
system.physmem.num_reads::switch_cpus05.inst           36                       # Number of read requests responded to by this memory
system.physmem.num_reads::switch_cpus05.data        17611                       # Number of read requests responded to by this memory
system.physmem.num_reads::switch_cpus06.inst           39                       # Number of read requests responded to by this memory
system.physmem.num_reads::switch_cpus06.data        25933                       # Number of read requests responded to by this memory
system.physmem.num_reads::switch_cpus07.inst           38                       # Number of read requests responded to by this memory
system.physmem.num_reads::switch_cpus07.data        28348                       # Number of read requests responded to by this memory
system.physmem.num_reads::switch_cpus08.inst           37                       # Number of read requests responded to by this memory
system.physmem.num_reads::switch_cpus08.data        10144                       # Number of read requests responded to by this memory
system.physmem.num_reads::switch_cpus09.inst           36                       # Number of read requests responded to by this memory
system.physmem.num_reads::switch_cpus09.data         9848                       # Number of read requests responded to by this memory
system.physmem.num_reads::switch_cpus10.inst           39                       # Number of read requests responded to by this memory
system.physmem.num_reads::switch_cpus10.data        17698                       # Number of read requests responded to by this memory
system.physmem.num_reads::switch_cpus11.inst           41                       # Number of read requests responded to by this memory
system.physmem.num_reads::switch_cpus11.data        12559                       # Number of read requests responded to by this memory
system.physmem.num_reads::switch_cpus12.inst           39                       # Number of read requests responded to by this memory
system.physmem.num_reads::switch_cpus12.data         9935                       # Number of read requests responded to by this memory
system.physmem.num_reads::switch_cpus13.inst           36                       # Number of read requests responded to by this memory
system.physmem.num_reads::switch_cpus13.data        17539                       # Number of read requests responded to by this memory
system.physmem.num_reads::switch_cpus14.inst           41                       # Number of read requests responded to by this memory
system.physmem.num_reads::switch_cpus14.data        26087                       # Number of read requests responded to by this memory
system.physmem.num_reads::switch_cpus15.inst           36                       # Number of read requests responded to by this memory
system.physmem.num_reads::switch_cpus15.data        17535                       # Number of read requests responded to by this memory
system.physmem.num_reads::total                296812                       # Number of read requests responded to by this memory
system.physmem.num_writes::writebacks           66439                       # Number of write requests responded to by this memory
system.physmem.num_writes::functional               0                       # Number of write requests responded to by this memory
system.physmem.num_writes::interrupt                0                       # Number of write requests responded to by this memory
system.physmem.num_writes::switch_cpus00.dtb.walker            0                       # Number of write requests responded to by this memory
system.physmem.num_writes::switch_cpus00.itb.walker            0                       # Number of write requests responded to by this memory
system.physmem.num_writes::switch_cpus00.inst            0                       # Number of write requests responded to by this memory
system.physmem.num_writes::switch_cpus00.data            0                       # Number of write requests responded to by this memory
system.physmem.num_writes::switch_cpus01.dtb.walker            0                       # Number of write requests responded to by this memory
system.physmem.num_writes::switch_cpus01.itb.walker            0                       # Number of write requests responded to by this memory
system.physmem.num_writes::switch_cpus01.inst            0                       # Number of write requests responded to by this memory
system.physmem.num_writes::switch_cpus01.data            0                       # Number of write requests responded to by this memory
system.physmem.num_writes::switch_cpus02.dtb.walker            0                       # Number of write requests responded to by this memory
system.physmem.num_writes::switch_cpus02.itb.walker            0                       # Number of write requests responded to by this memory
system.physmem.num_writes::switch_cpus02.inst            0                       # Number of write requests responded to by this memory
system.physmem.num_writes::switch_cpus02.data            0                       # Number of write requests responded to by this memory
system.physmem.num_writes::switch_cpus03.dtb.walker            0                       # Number of write requests responded to by this memory
system.physmem.num_writes::switch_cpus03.itb.walker            0                       # Number of write requests responded to by this memory
system.physmem.num_writes::switch_cpus03.inst            0                       # Number of write requests responded to by this memory
system.physmem.num_writes::switch_cpus03.data            0                       # Number of write requests responded to by this memory
system.physmem.num_writes::switch_cpus04.dtb.walker            0                       # Number of write requests responded to by this memory
system.physmem.num_writes::switch_cpus04.itb.walker            0                       # Number of write requests responded to by this memory
system.physmem.num_writes::switch_cpus04.inst            0                       # Number of write requests responded to by this memory
system.physmem.num_writes::switch_cpus04.data            0                       # Number of write requests responded to by this memory
system.physmem.num_writes::switch_cpus05.dtb.walker            0                       # Number of write requests responded to by this memory
system.physmem.num_writes::switch_cpus05.itb.walker            0                       # Number of write requests responded to by this memory
system.physmem.num_writes::switch_cpus05.inst            0                       # Number of write requests responded to by this memory
system.physmem.num_writes::switch_cpus05.data            0                       # Number of write requests responded to by this memory
system.physmem.num_writes::switch_cpus06.dtb.walker            0                       # Number of write requests responded to by this memory
system.physmem.num_writes::switch_cpus06.itb.walker            0                       # Number of write requests responded to by this memory
system.physmem.num_writes::switch_cpus06.inst            0                       # Number of write requests responded to by this memory
system.physmem.num_writes::switch_cpus06.data            0                       # Number of write requests responded to by this memory
system.physmem.num_writes::switch_cpus07.dtb.walker            0                       # Number of write requests responded to by this memory
system.physmem.num_writes::switch_cpus07.itb.walker            0                       # Number of write requests responded to by this memory
system.physmem.num_writes::switch_cpus07.inst            0                       # Number of write requests responded to by this memory
system.physmem.num_writes::switch_cpus07.data            0                       # Number of write requests responded to by this memory
system.physmem.num_writes::switch_cpus08.dtb.walker            0                       # Number of write requests responded to by this memory
system.physmem.num_writes::switch_cpus08.itb.walker            0                       # Number of write requests responded to by this memory
system.physmem.num_writes::switch_cpus08.inst            0                       # Number of write requests responded to by this memory
system.physmem.num_writes::switch_cpus08.data            0                       # Number of write requests responded to by this memory
system.physmem.num_writes::switch_cpus09.dtb.walker            0                       # Number of write requests responded to by this memory
system.physmem.num_writes::switch_cpus09.itb.walker            0                       # Number of write requests responded to by this memory
system.physmem.num_writes::switch_cpus09.inst            0                       # Number of write requests responded to by this memory
system.physmem.num_writes::switch_cpus09.data            0                       # Number of write requests responded to by this memory
system.physmem.num_writes::switch_cpus10.dtb.walker            0                       # Number of write requests responded to by this memory
system.physmem.num_writes::switch_cpus10.itb.walker            0                       # Number of write requests responded to by this memory
system.physmem.num_writes::switch_cpus10.inst            0                       # Number of write requests responded to by this memory
system.physmem.num_writes::switch_cpus10.data            0                       # Number of write requests responded to by this memory
system.physmem.num_writes::switch_cpus11.dtb.walker            0                       # Number of write requests responded to by this memory
system.physmem.num_writes::switch_cpus11.itb.walker            0                       # Number of write requests responded to by this memory
system.physmem.num_writes::switch_cpus11.inst            0                       # Number of write requests responded to by this memory
system.physmem.num_writes::switch_cpus11.data            0                       # Number of write requests responded to by this memory
system.physmem.num_writes::switch_cpus12.dtb.walker            0                       # Number of write requests responded to by this memory
system.physmem.num_writes::switch_cpus12.itb.walker            0                       # Number of write requests responded to by this memory
system.physmem.num_writes::switch_cpus12.inst            0                       # Number of write requests responded to by this memory
system.physmem.num_writes::switch_cpus12.data            0                       # Number of write requests responded to by this memory
system.physmem.num_writes::switch_cpus13.dtb.walker            0                       # Number of write requests responded to by this memory
system.physmem.num_writes::switch_cpus13.itb.walker            0                       # Number of write requests responded to by this memory
system.physmem.num_writes::switch_cpus13.inst            0                       # Number of write requests responded to by this memory
system.physmem.num_writes::switch_cpus13.data            0                       # Number of write requests responded to by this memory
system.physmem.num_writes::switch_cpus14.dtb.walker            0                       # Number of write requests responded to by this memory
system.physmem.num_writes::switch_cpus14.itb.walker            0                       # Number of write requests responded to by this memory
system.physmem.num_writes::switch_cpus14.inst            0                       # Number of write requests responded to by this memory
system.physmem.num_writes::switch_cpus14.data            0                       # Number of write requests responded to by this memory
system.physmem.num_writes::switch_cpus15.dtb.walker            0                       # Number of write requests responded to by this memory
system.physmem.num_writes::switch_cpus15.itb.walker            0                       # Number of write requests responded to by this memory
system.physmem.num_writes::switch_cpus15.inst            0                       # Number of write requests responded to by this memory
system.physmem.num_writes::switch_cpus15.data            0                       # Number of write requests responded to by this memory
system.physmem.num_writes::cpu00.dtb.walker            0                       # Number of write requests responded to by this memory
system.physmem.num_writes::cpu00.itb.walker            0                       # Number of write requests responded to by this memory
system.physmem.num_writes::cpu00.inst               0                       # Number of write requests responded to by this memory
system.physmem.num_writes::cpu00.data               0                       # Number of write requests responded to by this memory
system.physmem.num_writes::cpu01.dtb.walker            0                       # Number of write requests responded to by this memory
system.physmem.num_writes::cpu01.itb.walker            0                       # Number of write requests responded to by this memory
system.physmem.num_writes::cpu01.inst               0                       # Number of write requests responded to by this memory
system.physmem.num_writes::cpu01.data               0                       # Number of write requests responded to by this memory
system.physmem.num_writes::cpu02.dtb.walker            0                       # Number of write requests responded to by this memory
system.physmem.num_writes::cpu02.itb.walker            0                       # Number of write requests responded to by this memory
system.physmem.num_writes::cpu02.inst               0                       # Number of write requests responded to by this memory
system.physmem.num_writes::cpu02.data               0                       # Number of write requests responded to by this memory
system.physmem.num_writes::cpu03.dtb.walker            0                       # Number of write requests responded to by this memory
system.physmem.num_writes::cpu03.itb.walker            0                       # Number of write requests responded to by this memory
system.physmem.num_writes::cpu03.inst               0                       # Number of write requests responded to by this memory
system.physmem.num_writes::cpu03.data               0                       # Number of write requests responded to by this memory
system.physmem.num_writes::cpu04.dtb.walker            0                       # Number of write requests responded to by this memory
system.physmem.num_writes::cpu04.itb.walker            0                       # Number of write requests responded to by this memory
system.physmem.num_writes::cpu04.inst               0                       # Number of write requests responded to by this memory
system.physmem.num_writes::cpu04.data               0                       # Number of write requests responded to by this memory
system.physmem.num_writes::cpu05.dtb.walker            0                       # Number of write requests responded to by this memory
system.physmem.num_writes::cpu05.itb.walker            0                       # Number of write requests responded to by this memory
system.physmem.num_writes::cpu05.inst               0                       # Number of write requests responded to by this memory
system.physmem.num_writes::cpu05.data               0                       # Number of write requests responded to by this memory
system.physmem.num_writes::cpu06.dtb.walker            0                       # Number of write requests responded to by this memory
system.physmem.num_writes::cpu06.itb.walker            0                       # Number of write requests responded to by this memory
system.physmem.num_writes::cpu06.inst               0                       # Number of write requests responded to by this memory
system.physmem.num_writes::cpu06.data               0                       # Number of write requests responded to by this memory
system.physmem.num_writes::cpu07.dtb.walker            0                       # Number of write requests responded to by this memory
system.physmem.num_writes::cpu07.itb.walker            0                       # Number of write requests responded to by this memory
system.physmem.num_writes::cpu07.inst               0                       # Number of write requests responded to by this memory
system.physmem.num_writes::cpu07.data               0                       # Number of write requests responded to by this memory
system.physmem.num_writes::cpu08.dtb.walker            0                       # Number of write requests responded to by this memory
system.physmem.num_writes::cpu08.itb.walker            0                       # Number of write requests responded to by this memory
system.physmem.num_writes::cpu08.inst               0                       # Number of write requests responded to by this memory
system.physmem.num_writes::cpu08.data               0                       # Number of write requests responded to by this memory
system.physmem.num_writes::cpu09.dtb.walker            0                       # Number of write requests responded to by this memory
system.physmem.num_writes::cpu09.itb.walker            0                       # Number of write requests responded to by this memory
system.physmem.num_writes::cpu09.inst               0                       # Number of write requests responded to by this memory
system.physmem.num_writes::cpu09.data               0                       # Number of write requests responded to by this memory
system.physmem.num_writes::cpu10.dtb.walker            0                       # Number of write requests responded to by this memory
system.physmem.num_writes::cpu10.itb.walker            0                       # Number of write requests responded to by this memory
system.physmem.num_writes::cpu10.inst               0                       # Number of write requests responded to by this memory
system.physmem.num_writes::cpu10.data               0                       # Number of write requests responded to by this memory
system.physmem.num_writes::cpu11.dtb.walker            0                       # Number of write requests responded to by this memory
system.physmem.num_writes::cpu11.itb.walker            0                       # Number of write requests responded to by this memory
system.physmem.num_writes::cpu11.inst               0                       # Number of write requests responded to by this memory
system.physmem.num_writes::cpu11.data               0                       # Number of write requests responded to by this memory
system.physmem.num_writes::cpu12.dtb.walker            0                       # Number of write requests responded to by this memory
system.physmem.num_writes::cpu12.itb.walker            0                       # Number of write requests responded to by this memory
system.physmem.num_writes::cpu12.inst               0                       # Number of write requests responded to by this memory
system.physmem.num_writes::cpu12.data               0                       # Number of write requests responded to by this memory
system.physmem.num_writes::cpu13.dtb.walker            0                       # Number of write requests responded to by this memory
system.physmem.num_writes::cpu13.itb.walker            0                       # Number of write requests responded to by this memory
system.physmem.num_writes::cpu13.inst               0                       # Number of write requests responded to by this memory
system.physmem.num_writes::cpu13.data               0                       # Number of write requests responded to by this memory
system.physmem.num_writes::cpu14.dtb.walker            0                       # Number of write requests responded to by this memory
system.physmem.num_writes::cpu14.itb.walker            0                       # Number of write requests responded to by this memory
system.physmem.num_writes::cpu14.inst               0                       # Number of write requests responded to by this memory
system.physmem.num_writes::cpu14.data               0                       # Number of write requests responded to by this memory
system.physmem.num_writes::cpu15.dtb.walker            0                       # Number of write requests responded to by this memory
system.physmem.num_writes::cpu15.itb.walker            0                       # Number of write requests responded to by this memory
system.physmem.num_writes::cpu15.inst               0                       # Number of write requests responded to by this memory
system.physmem.num_writes::cpu15.data               0                       # Number of write requests responded to by this memory
system.physmem.num_writes::total                66439                       # Number of write requests responded to by this memory
system.physmem.bw_read::switch_cpus00.inst        53094                       # Total read bandwidth from this memory (bytes/s)
system.physmem.bw_read::switch_cpus00.data     39067904                       # Total read bandwidth from this memory (bytes/s)
system.physmem.bw_read::switch_cpus01.inst        55817                       # Total read bandwidth from this memory (bytes/s)
system.physmem.bw_read::switch_cpus01.data     17404052                       # Total read bandwidth from this memory (bytes/s)
system.physmem.bw_read::switch_cpus02.inst        49010                       # Total read bandwidth from this memory (bytes/s)
system.physmem.bw_read::switch_cpus02.data     24156563                       # Total read bandwidth from this memory (bytes/s)
system.physmem.bw_read::switch_cpus03.inst        46287                       # Total read bandwidth from this memory (bytes/s)
system.physmem.bw_read::switch_cpus03.data     23931933                       # Total read bandwidth from this memory (bytes/s)
system.physmem.bw_read::switch_cpus04.inst        53094                       # Total read bandwidth from this memory (bytes/s)
system.physmem.bw_read::switch_cpus04.data     35619494                       # Total read bandwidth from this memory (bytes/s)
system.physmem.bw_read::switch_cpus05.inst        49010                       # Total read bandwidth from this memory (bytes/s)
system.physmem.bw_read::switch_cpus05.data     23975498                       # Total read bandwidth from this memory (bytes/s)
system.physmem.bw_read::switch_cpus06.inst        53094                       # Total read bandwidth from this memory (bytes/s)
system.physmem.bw_read::switch_cpus06.data     35305013                       # Total read bandwidth from this memory (bytes/s)
system.physmem.bw_read::switch_cpus07.inst        51733                       # Total read bandwidth from this memory (bytes/s)
system.physmem.bw_read::switch_cpus07.data     38592777                       # Total read bandwidth from this memory (bytes/s)
system.physmem.bw_read::switch_cpus08.inst        50372                       # Total read bandwidth from this memory (bytes/s)
system.physmem.bw_read::switch_cpus08.data     13809974                       # Total read bandwidth from this memory (bytes/s)
system.physmem.bw_read::switch_cpus09.inst        49010                       # Total read bandwidth from this memory (bytes/s)
system.physmem.bw_read::switch_cpus09.data     13407001                       # Total read bandwidth from this memory (bytes/s)
system.physmem.bw_read::switch_cpus10.inst        53094                       # Total read bandwidth from this memory (bytes/s)
system.physmem.bw_read::switch_cpus10.data     24093939                       # Total read bandwidth from this memory (bytes/s)
system.physmem.bw_read::switch_cpus11.inst        55817                       # Total read bandwidth from this memory (bytes/s)
system.physmem.bw_read::switch_cpus11.data     17097739                       # Total read bandwidth from this memory (bytes/s)
system.physmem.bw_read::switch_cpus12.inst        53094                       # Total read bandwidth from this memory (bytes/s)
system.physmem.bw_read::switch_cpus12.data     13525442                       # Total read bandwidth from this memory (bytes/s)
system.physmem.bw_read::switch_cpus13.inst        49010                       # Total read bandwidth from this memory (bytes/s)
system.physmem.bw_read::switch_cpus13.data     23877477                       # Total read bandwidth from this memory (bytes/s)
system.physmem.bw_read::switch_cpus14.inst        55817                       # Total read bandwidth from this memory (bytes/s)
system.physmem.bw_read::switch_cpus14.data     35514667                       # Total read bandwidth from this memory (bytes/s)
system.physmem.bw_read::switch_cpus15.inst        49010                       # Total read bandwidth from this memory (bytes/s)
system.physmem.bw_read::switch_cpus15.data     23872032                       # Total read bandwidth from this memory (bytes/s)
system.physmem.bw_read::total               404077870                       # Total read bandwidth from this memory (bytes/s)
system.physmem.bw_inst_read::switch_cpus00.inst        53094                       # Instruction read bandwidth from this memory (bytes/s)
system.physmem.bw_inst_read::switch_cpus01.inst        55817                       # Instruction read bandwidth from this memory (bytes/s)
system.physmem.bw_inst_read::switch_cpus02.inst        49010                       # Instruction read bandwidth from this memory (bytes/s)
system.physmem.bw_inst_read::switch_cpus03.inst        46287                       # Instruction read bandwidth from this memory (bytes/s)
system.physmem.bw_inst_read::switch_cpus04.inst        53094                       # Instruction read bandwidth from this memory (bytes/s)
system.physmem.bw_inst_read::switch_cpus05.inst        49010                       # Instruction read bandwidth from this memory (bytes/s)
system.physmem.bw_inst_read::switch_cpus06.inst        53094                       # Instruction read bandwidth from this memory (bytes/s)
system.physmem.bw_inst_read::switch_cpus07.inst        51733                       # Instruction read bandwidth from this memory (bytes/s)
system.physmem.bw_inst_read::switch_cpus08.inst        50372                       # Instruction read bandwidth from this memory (bytes/s)
system.physmem.bw_inst_read::switch_cpus09.inst        49010                       # Instruction read bandwidth from this memory (bytes/s)
system.physmem.bw_inst_read::switch_cpus10.inst        53094                       # Instruction read bandwidth from this memory (bytes/s)
system.physmem.bw_inst_read::switch_cpus11.inst        55817                       # Instruction read bandwidth from this memory (bytes/s)
system.physmem.bw_inst_read::switch_cpus12.inst        53094                       # Instruction read bandwidth from this memory (bytes/s)
system.physmem.bw_inst_read::switch_cpus13.inst        49010                       # Instruction read bandwidth from this memory (bytes/s)
system.physmem.bw_inst_read::switch_cpus14.inst        55817                       # Instruction read bandwidth from this memory (bytes/s)
system.physmem.bw_inst_read::switch_cpus15.inst        49010                       # Instruction read bandwidth from this memory (bytes/s)
system.physmem.bw_inst_read::total             826366                       # Instruction read bandwidth from this memory (bytes/s)
system.physmem.bw_write::writebacks          90449610                       # Write bandwidth from this memory (bytes/s)
system.physmem.bw_write::total               90449610                       # Write bandwidth from this memory (bytes/s)
system.physmem.bw_total::writebacks          90449610                       # Total bandwidth to/from this memory (bytes/s)
system.physmem.bw_total::switch_cpus00.inst        53094                       # Total bandwidth to/from this memory (bytes/s)
system.physmem.bw_total::switch_cpus00.data     39067904                       # Total bandwidth to/from this memory (bytes/s)
system.physmem.bw_total::switch_cpus01.inst        55817                       # Total bandwidth to/from this memory (bytes/s)
system.physmem.bw_total::switch_cpus01.data     17404052                       # Total bandwidth to/from this memory (bytes/s)
system.physmem.bw_total::switch_cpus02.inst        49010                       # Total bandwidth to/from this memory (bytes/s)
system.physmem.bw_total::switch_cpus02.data     24156563                       # Total bandwidth to/from this memory (bytes/s)
system.physmem.bw_total::switch_cpus03.inst        46287                       # Total bandwidth to/from this memory (bytes/s)
system.physmem.bw_total::switch_cpus03.data     23931933                       # Total bandwidth to/from this memory (bytes/s)
system.physmem.bw_total::switch_cpus04.inst        53094                       # Total bandwidth to/from this memory (bytes/s)
system.physmem.bw_total::switch_cpus04.data     35619494                       # Total bandwidth to/from this memory (bytes/s)
system.physmem.bw_total::switch_cpus05.inst        49010                       # Total bandwidth to/from this memory (bytes/s)
system.physmem.bw_total::switch_cpus05.data     23975498                       # Total bandwidth to/from this memory (bytes/s)
system.physmem.bw_total::switch_cpus06.inst        53094                       # Total bandwidth to/from this memory (bytes/s)
system.physmem.bw_total::switch_cpus06.data     35305013                       # Total bandwidth to/from this memory (bytes/s)
system.physmem.bw_total::switch_cpus07.inst        51733                       # Total bandwidth to/from this memory (bytes/s)
system.physmem.bw_total::switch_cpus07.data     38592777                       # Total bandwidth to/from this memory (bytes/s)
system.physmem.bw_total::switch_cpus08.inst        50372                       # Total bandwidth to/from this memory (bytes/s)
system.physmem.bw_total::switch_cpus08.data     13809974                       # Total bandwidth to/from this memory (bytes/s)
system.physmem.bw_total::switch_cpus09.inst        49010                       # Total bandwidth to/from this memory (bytes/s)
system.physmem.bw_total::switch_cpus09.data     13407001                       # Total bandwidth to/from this memory (bytes/s)
system.physmem.bw_total::switch_cpus10.inst        53094                       # Total bandwidth to/from this memory (bytes/s)
system.physmem.bw_total::switch_cpus10.data     24093939                       # Total bandwidth to/from this memory (bytes/s)
system.physmem.bw_total::switch_cpus11.inst        55817                       # Total bandwidth to/from this memory (bytes/s)
system.physmem.bw_total::switch_cpus11.data     17097739                       # Total bandwidth to/from this memory (bytes/s)
system.physmem.bw_total::switch_cpus12.inst        53094                       # Total bandwidth to/from this memory (bytes/s)
system.physmem.bw_total::switch_cpus12.data     13525442                       # Total bandwidth to/from this memory (bytes/s)
system.physmem.bw_total::switch_cpus13.inst        49010                       # Total bandwidth to/from this memory (bytes/s)
system.physmem.bw_total::switch_cpus13.data     23877477                       # Total bandwidth to/from this memory (bytes/s)
system.physmem.bw_total::switch_cpus14.inst        55817                       # Total bandwidth to/from this memory (bytes/s)
system.physmem.bw_total::switch_cpus14.data     35514667                       # Total bandwidth to/from this memory (bytes/s)
system.physmem.bw_total::switch_cpus15.inst        49010                       # Total bandwidth to/from this memory (bytes/s)
system.physmem.bw_total::switch_cpus15.data     23872032                       # Total bandwidth to/from this memory (bytes/s)
system.physmem.bw_total::total              494527480                       # Total bandwidth to/from this memory (bytes/s)
system.switch_cpus00.dtb.inst_hits                  0                       # ITB inst hits
system.switch_cpus00.dtb.inst_misses                0                       # ITB inst misses
system.switch_cpus00.dtb.read_hits                  0                       # DTB read hits
system.switch_cpus00.dtb.read_misses                0                       # DTB read misses
system.switch_cpus00.dtb.write_hits                 0                       # DTB write hits
system.switch_cpus00.dtb.write_misses               0                       # DTB write misses
system.switch_cpus00.dtb.flush_tlb                  0                       # Number of times complete TLB was flushed
system.switch_cpus00.dtb.flush_tlb_mva              0                       # Number of times TLB was flushed by MVA
system.switch_cpus00.dtb.flush_tlb_mva_asid            0                       # Number of times TLB was flushed by MVA & ASID
system.switch_cpus00.dtb.flush_tlb_asid             0                       # Number of times TLB was flushed by ASID
system.switch_cpus00.dtb.flush_entries              0                       # Number of entries that have been flushed from TLB
system.switch_cpus00.dtb.align_faults               0                       # Number of TLB faults due to alignment restrictions
system.switch_cpus00.dtb.prefetch_faults            0                       # Number of TLB faults due to prefetch
system.switch_cpus00.dtb.domain_faults              0                       # Number of TLB faults due to domain restrictions
system.switch_cpus00.dtb.perms_faults               0                       # Number of TLB faults due to permissions restrictions
system.switch_cpus00.dtb.read_accesses              0                       # DTB read accesses
system.switch_cpus00.dtb.write_accesses             0                       # DTB write accesses
system.switch_cpus00.dtb.inst_accesses              0                       # ITB inst accesses
system.switch_cpus00.dtb.hits                       0                       # DTB hits
system.switch_cpus00.dtb.misses                     0                       # DTB misses
system.switch_cpus00.dtb.accesses                   0                       # DTB accesses
system.switch_cpus00.itb.inst_hits                  0                       # ITB inst hits
system.switch_cpus00.itb.inst_misses                0                       # ITB inst misses
system.switch_cpus00.itb.read_hits                  0                       # DTB read hits
system.switch_cpus00.itb.read_misses                0                       # DTB read misses
system.switch_cpus00.itb.write_hits                 0                       # DTB write hits
system.switch_cpus00.itb.write_misses               0                       # DTB write misses
system.switch_cpus00.itb.flush_tlb                  0                       # Number of times complete TLB was flushed
system.switch_cpus00.itb.flush_tlb_mva              0                       # Number of times TLB was flushed by MVA
system.switch_cpus00.itb.flush_tlb_mva_asid            0                       # Number of times TLB was flushed by MVA & ASID
system.switch_cpus00.itb.flush_tlb_asid             0                       # Number of times TLB was flushed by ASID
system.switch_cpus00.itb.flush_entries              0                       # Number of entries that have been flushed from TLB
system.switch_cpus00.itb.align_faults               0                       # Number of TLB faults due to alignment restrictions
system.switch_cpus00.itb.prefetch_faults            0                       # Number of TLB faults due to prefetch
system.switch_cpus00.itb.domain_faults              0                       # Number of TLB faults due to domain restrictions
system.switch_cpus00.itb.perms_faults               0                       # Number of TLB faults due to permissions restrictions
system.switch_cpus00.itb.read_accesses              0                       # DTB read accesses
system.switch_cpus00.itb.write_accesses             0                       # DTB write accesses
system.switch_cpus00.itb.inst_accesses              0                       # ITB inst accesses
system.switch_cpus00.itb.hits                       0                       # DTB hits
system.switch_cpus00.itb.misses                     0                       # DTB misses
system.switch_cpus00.itb.accesses                   0                       # DTB accesses
system.cpu00.workload.num_syscalls                 23                       # Number of system calls
system.switch_cpus00.numCycles              225470800                       # number of cpu cycles simulated
system.switch_cpus00.numWorkItemsStarted            0                       # number of work items this cpu started
system.switch_cpus00.numWorkItemsCompleted            0                       # number of work items this cpu completed
system.switch_cpus00.BPredUnit.lookups       17535059                       # Number of BP lookups
system.switch_cpus00.BPredUnit.condPredicted     15824543                       # Number of conditional branches predicted
system.switch_cpus00.BPredUnit.condIncorrect       921954                       # Number of conditional branches incorrect
system.switch_cpus00.BPredUnit.BTBLookups      6722840                       # Number of BTB lookups
system.switch_cpus00.BPredUnit.BTBHits        6277173                       # Number of BTB hits
system.switch_cpus00.BPredUnit.BTBCorrect            0                       # Number of correct BTB predictions (this stat may not work properly.
system.switch_cpus00.BPredUnit.usedRAS         970177                       # Number of times the RAS was used to get a target.
system.switch_cpus00.BPredUnit.RASInCorrect        40859                       # Number of incorrect RAS predictions.
system.switch_cpus00.fetch.icacheStallCycles    185990645                       # Number of cycles fetch is stalled on an Icache miss
system.switch_cpus00.fetch.Insts            110313109                       # Number of instructions fetch has processed
system.switch_cpus00.fetch.Branches          17535059                       # Number of branches that fetch encountered
system.switch_cpus00.fetch.predictedBranches      7247350                       # Number of branches that fetch has predicted taken
system.switch_cpus00.fetch.Cycles            21818245                       # Number of cycles fetch has run and was not squashing or blocked
system.switch_cpus00.fetch.SquashCycles       2888430                       # Number of cycles fetch has spent squashing
system.switch_cpus00.fetch.BlockedCycles      4416115                       # Number of cycles fetch has spent blocked
system.switch_cpus00.fetch.CacheLines        10677467                       # Number of cache lines fetched
system.switch_cpus00.fetch.IcacheSquashes       926758                       # Number of outstanding Icache misses that were squashed
system.switch_cpus00.fetch.rateDist::samples    214168472                       # Number of instructions fetched each cycle (Total)
system.switch_cpus00.fetch.rateDist::mean     0.604273                       # Number of instructions fetched each cycle (Total)
system.switch_cpus00.fetch.rateDist::stdev     1.931910                       # Number of instructions fetched each cycle (Total)
system.switch_cpus00.fetch.rateDist::underflows            0      0.00%      0.00% # Number of instructions fetched each cycle (Total)
system.switch_cpus00.fetch.rateDist::0      192350227     89.81%     89.81% # Number of instructions fetched each cycle (Total)
system.switch_cpus00.fetch.rateDist::1         778659      0.36%     90.18% # Number of instructions fetched each cycle (Total)
system.switch_cpus00.fetch.rateDist::2        1596339      0.75%     90.92% # Number of instructions fetched each cycle (Total)
system.switch_cpus00.fetch.rateDist::3         667770      0.31%     91.23% # Number of instructions fetched each cycle (Total)
system.switch_cpus00.fetch.rateDist::4        3628965      1.69%     92.93% # Number of instructions fetched each cycle (Total)
system.switch_cpus00.fetch.rateDist::5        3227032      1.51%     94.43% # Number of instructions fetched each cycle (Total)
system.switch_cpus00.fetch.rateDist::6         629124      0.29%     94.73% # Number of instructions fetched each cycle (Total)
system.switch_cpus00.fetch.rateDist::7        1307082      0.61%     95.34% # Number of instructions fetched each cycle (Total)
system.switch_cpus00.fetch.rateDist::8        9983274      4.66%    100.00% # Number of instructions fetched each cycle (Total)
system.switch_cpus00.fetch.rateDist::overflows            0      0.00%    100.00% # Number of instructions fetched each cycle (Total)
system.switch_cpus00.fetch.rateDist::min_value            0                       # Number of instructions fetched each cycle (Total)
system.switch_cpus00.fetch.rateDist::max_value            8                       # Number of instructions fetched each cycle (Total)
system.switch_cpus00.fetch.rateDist::total    214168472                       # Number of instructions fetched each cycle (Total)
system.switch_cpus00.fetch.branchRate        0.077771                       # Number of branch fetches per cycle
system.switch_cpus00.fetch.rate              0.489257                       # Number of inst fetches per cycle
system.switch_cpus00.decode.IdleCycles      184945979                       # Number of cycles decode is idle
system.switch_cpus00.decode.BlockedCycles      5472168                       # Number of cycles decode is blocked
system.switch_cpus00.decode.RunCycles        21738417                       # Number of cycles decode is running
system.switch_cpus00.decode.UnblockCycles        68927                       # Number of cycles decode is unblocking
system.switch_cpus00.decode.SquashCycles      1942975                       # Number of cycles decode is squashing
system.switch_cpus00.decode.BranchResolved      1537177                       # Number of times decode resolved a branch
system.switch_cpus00.decode.BranchMispred          493                       # Number of times decode detected a branch misprediction
system.switch_cpus00.decode.DecodedInsts    129355246                       # Number of instructions handled by decode
system.switch_cpus00.decode.SquashedInsts         2731                       # Number of squashed instructions handled by decode
system.switch_cpus00.rename.SquashCycles      1942975                       # Number of cycles rename is squashing
system.switch_cpus00.rename.IdleCycles      185134902                       # Number of cycles rename is idle
system.switch_cpus00.rename.BlockCycles       3929364                       # Number of cycles rename is blocking
system.switch_cpus00.rename.serializeStallCycles       952114                       # count of cycles rename stalled for serializing inst
system.switch_cpus00.rename.RunCycles        21631438                       # Number of cycles rename is running
system.switch_cpus00.rename.UnblockCycles       577673                       # Number of cycles rename is unblocking
system.switch_cpus00.rename.RenamedInsts    129287468                       # Number of instructions processed by rename
system.switch_cpus00.rename.ROBFullEvents          139                       # Number of times rename has blocked due to ROB full
system.switch_cpus00.rename.IQFullEvents       244946                       # Number of times rename has blocked due to IQ full
system.switch_cpus00.rename.LSQFullEvents       209635                       # Number of times rename has blocked due to LSQ full
system.switch_cpus00.rename.FullRegisterEvents         4842                       # Number of times there has been no free registers
system.switch_cpus00.rename.RenamedOperands    151793741                       # Number of destination operands rename has renamed
system.switch_cpus00.rename.RenameLookups    608973588                       # Number of register rename lookups that rename has made
system.switch_cpus00.rename.int_rename_lookups    608973588                       # Number of integer rename lookups
system.switch_cpus00.rename.CommittedMaps    134722847                       # Number of HB maps that are committed
system.switch_cpus00.rename.UndoneMaps       17070877                       # Number of HB maps that are undone due to squashing
system.switch_cpus00.rename.serializingInsts        15015                       # count of serializing insts renamed
system.switch_cpus00.rename.tempSerializingInsts         7580                       # count of temporary serializing insts renamed
system.switch_cpus00.rename.skidInsts         1458467                       # count of insts added to the skid buffer
system.switch_cpus00.memDep0.insertedLoads     30518362                       # Number of loads inserted to the mem dependence unit.
system.switch_cpus00.memDep0.insertedStores     15436803                       # Number of stores inserted to the mem dependence unit.
system.switch_cpus00.memDep0.conflictingLoads       139659                       # Number of conflicting loads.
system.switch_cpus00.memDep0.conflictingStores       747859                       # Number of conflicting stores.
system.switch_cpus00.iq.iqInstsAdded        129037940                       # Number of instructions added to the IQ (excludes non-spec)
system.switch_cpus00.iq.iqNonSpecInstsAdded        15061                       # Number of non-speculative instructions added to the IQ
system.switch_cpus00.iq.iqInstsIssued       124118384                       # Number of instructions issued
system.switch_cpus00.iq.iqSquashedInstsIssued        64454                       # Number of squashed instructions issued
system.switch_cpus00.iq.iqSquashedInstsExamined      9880547                       # Number of squashed instructions iterated over during squash; mainly for profiling
system.switch_cpus00.iq.iqSquashedOperandsExamined     23608388                       # Number of squashed operands that are examined and possibly removed from graph
system.switch_cpus00.iq.iqSquashedNonSpecRemoved           82                       # Number of squashed non-spec instructions that were removed
system.switch_cpus00.iq.issued_per_cycle::samples    214168472                       # Number of insts issued each cycle
system.switch_cpus00.iq.issued_per_cycle::mean     0.579536                       # Number of insts issued each cycle
system.switch_cpus00.iq.issued_per_cycle::stdev     1.377025                       # Number of insts issued each cycle
system.switch_cpus00.iq.issued_per_cycle::underflows            0      0.00%      0.00% # Number of insts issued each cycle
system.switch_cpus00.iq.issued_per_cycle::0    170078948     79.41%     79.41% # Number of insts issued each cycle
system.switch_cpus00.iq.issued_per_cycle::1     13194779      6.16%     85.57% # Number of insts issued each cycle
system.switch_cpus00.iq.issued_per_cycle::2     10842463      5.06%     90.64% # Number of insts issued each cycle
system.switch_cpus00.iq.issued_per_cycle::3      4676171      2.18%     92.82% # Number of insts issued each cycle
system.switch_cpus00.iq.issued_per_cycle::4      5937240      2.77%     95.59% # Number of insts issued each cycle
system.switch_cpus00.iq.issued_per_cycle::5      5752438      2.69%     98.28% # Number of insts issued each cycle
system.switch_cpus00.iq.issued_per_cycle::6      3267405      1.53%     99.80% # Number of insts issued each cycle
system.switch_cpus00.iq.issued_per_cycle::7       257638      0.12%     99.92% # Number of insts issued each cycle
system.switch_cpus00.iq.issued_per_cycle::8       161390      0.08%    100.00% # Number of insts issued each cycle
system.switch_cpus00.iq.issued_per_cycle::overflows            0      0.00%    100.00% # Number of insts issued each cycle
system.switch_cpus00.iq.issued_per_cycle::min_value            0                       # Number of insts issued each cycle
system.switch_cpus00.iq.issued_per_cycle::max_value            8                       # Number of insts issued each cycle
system.switch_cpus00.iq.issued_per_cycle::total    214168472                       # Number of insts issued each cycle
system.switch_cpus00.iq.fu_full::No_OpClass            0      0.00%      0.00% # attempts to use FU when none available
system.switch_cpus00.iq.fu_full::IntAlu        314232     11.09%     11.09% # attempts to use FU when none available
system.switch_cpus00.iq.fu_full::IntMult            0      0.00%     11.09% # attempts to use FU when none available
system.switch_cpus00.iq.fu_full::IntDiv             0      0.00%     11.09% # attempts to use FU when none available
system.switch_cpus00.iq.fu_full::FloatAdd            0      0.00%     11.09% # attempts to use FU when none available
system.switch_cpus00.iq.fu_full::FloatCmp            0      0.00%     11.09% # attempts to use FU when none available
system.switch_cpus00.iq.fu_full::FloatCvt            0      0.00%     11.09% # attempts to use FU when none available
system.switch_cpus00.iq.fu_full::FloatMult            0      0.00%     11.09% # attempts to use FU when none available
system.switch_cpus00.iq.fu_full::FloatDiv            0      0.00%     11.09% # attempts to use FU when none available
system.switch_cpus00.iq.fu_full::FloatSqrt            0      0.00%     11.09% # attempts to use FU when none available
system.switch_cpus00.iq.fu_full::SimdAdd            0      0.00%     11.09% # attempts to use FU when none available
system.switch_cpus00.iq.fu_full::SimdAddAcc            0      0.00%     11.09% # attempts to use FU when none available
system.switch_cpus00.iq.fu_full::SimdAlu            0      0.00%     11.09% # attempts to use FU when none available
system.switch_cpus00.iq.fu_full::SimdCmp            0      0.00%     11.09% # attempts to use FU when none available
system.switch_cpus00.iq.fu_full::SimdCvt            0      0.00%     11.09% # attempts to use FU when none available
system.switch_cpus00.iq.fu_full::SimdMisc            0      0.00%     11.09% # attempts to use FU when none available
system.switch_cpus00.iq.fu_full::SimdMult            0      0.00%     11.09% # attempts to use FU when none available
system.switch_cpus00.iq.fu_full::SimdMultAcc            0      0.00%     11.09% # attempts to use FU when none available
system.switch_cpus00.iq.fu_full::SimdShift            0      0.00%     11.09% # attempts to use FU when none available
system.switch_cpus00.iq.fu_full::SimdShiftAcc            0      0.00%     11.09% # attempts to use FU when none available
system.switch_cpus00.iq.fu_full::SimdSqrt            0      0.00%     11.09% # attempts to use FU when none available
system.switch_cpus00.iq.fu_full::SimdFloatAdd            0      0.00%     11.09% # attempts to use FU when none available
system.switch_cpus00.iq.fu_full::SimdFloatAlu            0      0.00%     11.09% # attempts to use FU when none available
system.switch_cpus00.iq.fu_full::SimdFloatCmp            0      0.00%     11.09% # attempts to use FU when none available
system.switch_cpus00.iq.fu_full::SimdFloatCvt            0      0.00%     11.09% # attempts to use FU when none available
system.switch_cpus00.iq.fu_full::SimdFloatDiv            0      0.00%     11.09% # attempts to use FU when none available
system.switch_cpus00.iq.fu_full::SimdFloatMisc            0      0.00%     11.09% # attempts to use FU when none available
system.switch_cpus00.iq.fu_full::SimdFloatMult            0      0.00%     11.09% # attempts to use FU when none available
system.switch_cpus00.iq.fu_full::SimdFloatMultAcc            0      0.00%     11.09% # attempts to use FU when none available
system.switch_cpus00.iq.fu_full::SimdFloatSqrt            0      0.00%     11.09% # attempts to use FU when none available
system.switch_cpus00.iq.fu_full::MemRead      2449303     86.41%     97.50% # attempts to use FU when none available
system.switch_cpus00.iq.fu_full::MemWrite        70943      2.50%    100.00% # attempts to use FU when none available
system.switch_cpus00.iq.fu_full::IprAccess            0      0.00%    100.00% # attempts to use FU when none available
system.switch_cpus00.iq.fu_full::InstPrefetch            0      0.00%    100.00% # attempts to use FU when none available
system.switch_cpus00.iq.FU_type_0::No_OpClass            0      0.00%      0.00% # Type of FU issued
system.switch_cpus00.iq.FU_type_0::IntAlu     77855900     62.73%     62.73% # Type of FU issued
system.switch_cpus00.iq.FU_type_0::IntMult      1083729      0.87%     63.60% # Type of FU issued
system.switch_cpus00.iq.FU_type_0::IntDiv            0      0.00%     63.60% # Type of FU issued
system.switch_cpus00.iq.FU_type_0::FloatAdd            0      0.00%     63.60% # Type of FU issued
system.switch_cpus00.iq.FU_type_0::FloatCmp            0      0.00%     63.60% # Type of FU issued
system.switch_cpus00.iq.FU_type_0::FloatCvt            0      0.00%     63.60% # Type of FU issued
system.switch_cpus00.iq.FU_type_0::FloatMult            0      0.00%     63.60% # Type of FU issued
system.switch_cpus00.iq.FU_type_0::FloatDiv            0      0.00%     63.60% # Type of FU issued
system.switch_cpus00.iq.FU_type_0::FloatSqrt            0      0.00%     63.60% # Type of FU issued
system.switch_cpus00.iq.FU_type_0::SimdAdd            0      0.00%     63.60% # Type of FU issued
system.switch_cpus00.iq.FU_type_0::SimdAddAcc            0      0.00%     63.60% # Type of FU issued
system.switch_cpus00.iq.FU_type_0::SimdAlu            0      0.00%     63.60% # Type of FU issued
system.switch_cpus00.iq.FU_type_0::SimdCmp            0      0.00%     63.60% # Type of FU issued
system.switch_cpus00.iq.FU_type_0::SimdCvt            0      0.00%     63.60% # Type of FU issued
system.switch_cpus00.iq.FU_type_0::SimdMisc            0      0.00%     63.60% # Type of FU issued
system.switch_cpus00.iq.FU_type_0::SimdMult            0      0.00%     63.60% # Type of FU issued
system.switch_cpus00.iq.FU_type_0::SimdMultAcc            0      0.00%     63.60% # Type of FU issued
system.switch_cpus00.iq.FU_type_0::SimdShift            0      0.00%     63.60% # Type of FU issued
system.switch_cpus00.iq.FU_type_0::SimdShiftAcc            0      0.00%     63.60% # Type of FU issued
system.switch_cpus00.iq.FU_type_0::SimdSqrt            0      0.00%     63.60% # Type of FU issued
system.switch_cpus00.iq.FU_type_0::SimdFloatAdd            0      0.00%     63.60% # Type of FU issued
system.switch_cpus00.iq.FU_type_0::SimdFloatAlu            0      0.00%     63.60% # Type of FU issued
system.switch_cpus00.iq.FU_type_0::SimdFloatCmp            0      0.00%     63.60% # Type of FU issued
system.switch_cpus00.iq.FU_type_0::SimdFloatCvt            0      0.00%     63.60% # Type of FU issued
system.switch_cpus00.iq.FU_type_0::SimdFloatDiv            0      0.00%     63.60% # Type of FU issued
system.switch_cpus00.iq.FU_type_0::SimdFloatMisc         7432      0.01%     63.61% # Type of FU issued
system.switch_cpus00.iq.FU_type_0::SimdFloatMult            0      0.00%     63.61% # Type of FU issued
system.switch_cpus00.iq.FU_type_0::SimdFloatMultAcc            0      0.00%     63.61% # Type of FU issued
system.switch_cpus00.iq.FU_type_0::SimdFloatSqrt            0      0.00%     63.61% # Type of FU issued
system.switch_cpus00.iq.FU_type_0::MemRead     29768464     23.98%     87.59% # Type of FU issued
system.switch_cpus00.iq.FU_type_0::MemWrite     15402859     12.41%    100.00% # Type of FU issued
system.switch_cpus00.iq.FU_type_0::IprAccess            0      0.00%    100.00% # Type of FU issued
system.switch_cpus00.iq.FU_type_0::InstPrefetch            0      0.00%    100.00% # Type of FU issued
system.switch_cpus00.iq.FU_type_0::total    124118384                       # Type of FU issued
system.switch_cpus00.iq.rate                 0.550485                       # Inst issue rate
system.switch_cpus00.iq.fu_busy_cnt           2834478                       # FU busy when requested
system.switch_cpus00.iq.fu_busy_rate         0.022837                       # FU busy rate (busy events/executed inst)
system.switch_cpus00.iq.int_inst_queue_reads    465304172                       # Number of integer instruction queue reads
system.switch_cpus00.iq.int_inst_queue_writes    138936690                       # Number of integer instruction queue writes
system.switch_cpus00.iq.int_inst_queue_wakeup_accesses    123060460                       # Number of integer instruction queue wakeup accesses
system.switch_cpus00.iq.fp_inst_queue_reads            0                       # Number of floating instruction queue reads
system.switch_cpus00.iq.fp_inst_queue_writes            0                       # Number of floating instruction queue writes
system.switch_cpus00.iq.fp_inst_queue_wakeup_accesses            0                       # Number of floating instruction queue wakeup accesses
system.switch_cpus00.iq.int_alu_accesses    126952862                       # Number of integer alu accesses
system.switch_cpus00.iq.fp_alu_accesses             0                       # Number of floating point alu accesses
system.switch_cpus00.iew.lsq.thread0.forwLoads       223216                       # Number of loads that had data forwarded from stores
system.switch_cpus00.iew.lsq.thread0.invAddrLoads            0                       # Number of loads ignored due to an invalid address
system.switch_cpus00.iew.lsq.thread0.squashedLoads      1170319                       # Number of loads squashed
system.switch_cpus00.iew.lsq.thread0.ignoredResponses          476                       # Number of memory responses ignored because the instruction is squashed
system.switch_cpus00.iew.lsq.thread0.memOrderViolation         3153                       # Number of memory ordering violations
system.switch_cpus00.iew.lsq.thread0.squashedStores        91467                       # Number of stores squashed
system.switch_cpus00.iew.lsq.thread0.invAddrSwpfs            0                       # Number of software prefetches ignored due to an invalid address
system.switch_cpus00.iew.lsq.thread0.blockedLoads            0                       # Number of blocked loads due to partial load-store forwarding
system.switch_cpus00.iew.lsq.thread0.rescheduledLoads        11003                       # Number of loads that were rescheduled
system.switch_cpus00.iew.lsq.thread0.cacheBlocked            0                       # Number of times an access to memory failed due to the cache being blocked
system.switch_cpus00.iew.iewIdleCycles              0                       # Number of cycles IEW is idle
system.switch_cpus00.iew.iewSquashCycles      1942975                       # Number of cycles IEW is squashing
system.switch_cpus00.iew.iewBlockCycles       3603661                       # Number of cycles IEW is blocking
system.switch_cpus00.iew.iewUnblockCycles       163393                       # Number of cycles IEW is unblocking
system.switch_cpus00.iew.iewDispatchedInsts    129053086                       # Number of instructions dispatched to IQ
system.switch_cpus00.iew.iewDispSquashedInsts         1308                       # Number of squashed instructions skipped by dispatch
system.switch_cpus00.iew.iewDispLoadInsts     30518362                       # Number of dispatched load instructions
system.switch_cpus00.iew.iewDispStoreInsts     15436803                       # Number of dispatched store instructions
system.switch_cpus00.iew.iewDispNonSpecInsts         7583                       # Number of dispatched non-speculative instructions
system.switch_cpus00.iew.iewIQFullEvents       111231                       # Number of times the IQ has become full, causing a stall
system.switch_cpus00.iew.iewLSQFullEvents           89                       # Number of times the LSQ has become full, causing a stall
system.switch_cpus00.iew.memOrderViolationEvents         3153                       # Number of memory order violations
system.switch_cpus00.iew.predictedTakenIncorrect       539936                       # Number of branches that were predicted taken incorrectly
system.switch_cpus00.iew.predictedNotTakenIncorrect       541262                       # Number of branches that were predicted not taken incorrectly
system.switch_cpus00.iew.branchMispredicts      1081198                       # Number of branch mispredicts detected at execute
system.switch_cpus00.iew.iewExecutedInsts    123250594                       # Number of executed instructions
system.switch_cpus00.iew.iewExecLoadInsts     29667083                       # Number of load instructions executed
system.switch_cpus00.iew.iewExecSquashedInsts       867790                       # Number of squashed instructions skipped in execute
system.switch_cpus00.iew.exec_swp                   0                       # number of swp insts executed
system.switch_cpus00.iew.exec_nop                  85                       # number of nop insts executed
system.switch_cpus00.iew.exec_refs           45068627                       # number of memory reference insts executed
system.switch_cpus00.iew.exec_branches       16146072                       # Number of branches executed
system.switch_cpus00.iew.exec_stores         15401544                       # Number of stores executed
system.switch_cpus00.iew.exec_rate           0.546637                       # Inst execution rate
system.switch_cpus00.iew.wb_sent            123064400                       # cumulative count of insts sent to commit
system.switch_cpus00.iew.wb_count           123060460                       # cumulative count of insts written-back
system.switch_cpus00.iew.wb_producers        66457021                       # num instructions producing a value
system.switch_cpus00.iew.wb_consumers       130921417                       # num instructions consuming a value
system.switch_cpus00.iew.wb_penalized               0                       # number of instrctions required to write to 'other' IQ
system.switch_cpus00.iew.wb_rate             0.545793                       # insts written-back per cycle
system.switch_cpus00.iew.wb_fanout           0.507610                       # average fanout of values written-back
system.switch_cpus00.iew.wb_penalized_rate            0                       # fraction of instructions written-back that wrote to 'other' IQ
system.switch_cpus00.commit.commitCommittedInsts    100000000                       # The number of committed instructions
system.switch_cpus00.commit.commitCommittedOps    117516368                       # The number of committed instructions
system.switch_cpus00.commit.commitSquashedInsts     11549388                       # The number of squashed insts skipped by commit
system.switch_cpus00.commit.commitNonSpecStalls        14979                       # The number of times commit has been forced to stall to communicate backwards
system.switch_cpus00.commit.branchMispredicts       942191                       # The number of times a branch was mispredicted
system.switch_cpus00.commit.committed_per_cycle::samples    212225497                       # Number of insts commited each cycle
system.switch_cpus00.commit.committed_per_cycle::mean     0.553734                       # Number of insts commited each cycle
system.switch_cpus00.commit.committed_per_cycle::stdev     1.377449                       # Number of insts commited each cycle
system.switch_cpus00.commit.committed_per_cycle::underflows            0      0.00%      0.00% # Number of insts commited each cycle
system.switch_cpus00.commit.committed_per_cycle::0    169626537     79.93%     79.93% # Number of insts commited each cycle
system.switch_cpus00.commit.committed_per_cycle::1     15532655      7.32%     87.25% # Number of insts commited each cycle
system.switch_cpus00.commit.committed_per_cycle::2      7293869      3.44%     90.68% # Number of insts commited each cycle
system.switch_cpus00.commit.committed_per_cycle::3      7210633      3.40%     94.08% # Number of insts commited each cycle
system.switch_cpus00.commit.committed_per_cycle::4      1961199      0.92%     95.01% # Number of insts commited each cycle
system.switch_cpus00.commit.committed_per_cycle::5      8391666      3.95%     98.96% # Number of insts commited each cycle
system.switch_cpus00.commit.committed_per_cycle::6       626854      0.30%     99.25% # Number of insts commited each cycle
system.switch_cpus00.commit.committed_per_cycle::7       456846      0.22%     99.47% # Number of insts commited each cycle
system.switch_cpus00.commit.committed_per_cycle::8      1125238      0.53%    100.00% # Number of insts commited each cycle
system.switch_cpus00.commit.committed_per_cycle::overflows            0      0.00%    100.00% # Number of insts commited each cycle
system.switch_cpus00.commit.committed_per_cycle::min_value            0                       # Number of insts commited each cycle
system.switch_cpus00.commit.committed_per_cycle::max_value            8                       # Number of insts commited each cycle
system.switch_cpus00.commit.committed_per_cycle::total    212225497                       # Number of insts commited each cycle
system.switch_cpus00.commit.committedInsts    100000000                       # Number of instructions committed
system.switch_cpus00.commit.committedOps    117516368                       # Number of ops (including micro ops) committed
system.switch_cpus00.commit.swp_count               0                       # Number of s/w prefetches committed
system.switch_cpus00.commit.refs             44693368                       # Number of memory references committed
system.switch_cpus00.commit.loads            29348035                       # Number of loads committed
system.switch_cpus00.commit.membars              7478                       # Number of memory barriers committed
system.switch_cpus00.commit.branches         15518718                       # Number of branches committed
system.switch_cpus00.commit.fp_insts                0                       # Number of committed floating point instructions.
system.switch_cpus00.commit.int_insts       104500046                       # Number of committed integer instructions.
system.switch_cpus00.commit.function_calls      1138202                       # Number of function calls committed.
system.switch_cpus00.commit.bw_lim_events      1125238                       # number cycles where commit BW limit reached
system.switch_cpus00.commit.bw_limited              0                       # number of insts not committed due to BW limits
system.switch_cpus00.rob.rob_reads          340165716                       # The number of ROB reads
system.switch_cpus00.rob.rob_writes         260074689                       # The number of ROB writes
system.switch_cpus00.timesIdled               4080760                       # Number of times that the entire CPU went into an idle state and unscheduled itself
system.switch_cpus00.idleCycles              11302328                       # Total number of cycles that the CPU has spent unscheduled due to idling
system.switch_cpus00.committedInsts         100000000                       # Number of Instructions Simulated
system.switch_cpus00.committedOps           117516368                       # Number of Ops (including micro ops) Simulated
system.switch_cpus00.committedInsts_total    100000000                       # Number of Instructions Simulated
system.switch_cpus00.cpi                     2.254708                       # CPI: Cycles Per Instruction
system.switch_cpus00.cpi_total               2.254708                       # CPI: Total CPI of All Threads
system.switch_cpus00.ipc                     0.443516                       # IPC: Instructions Per Cycle
system.switch_cpus00.ipc_total               0.443516                       # IPC: Total IPC of All Threads
system.switch_cpus00.int_regfile_reads      609353021                       # number of integer regfile reads
system.switch_cpus00.int_regfile_writes     142907877                       # number of integer regfile writes
system.switch_cpus00.misc_regfile_reads     154060125                       # number of misc regfile reads
system.switch_cpus00.misc_regfile_writes        14956                       # number of misc regfile writes
system.switch_cpus01.dtb.inst_hits                  0                       # ITB inst hits
system.switch_cpus01.dtb.inst_misses                0                       # ITB inst misses
system.switch_cpus01.dtb.read_hits                  0                       # DTB read hits
system.switch_cpus01.dtb.read_misses                0                       # DTB read misses
system.switch_cpus01.dtb.write_hits                 0                       # DTB write hits
system.switch_cpus01.dtb.write_misses               0                       # DTB write misses
system.switch_cpus01.dtb.flush_tlb                  0                       # Number of times complete TLB was flushed
system.switch_cpus01.dtb.flush_tlb_mva              0                       # Number of times TLB was flushed by MVA
system.switch_cpus01.dtb.flush_tlb_mva_asid            0                       # Number of times TLB was flushed by MVA & ASID
system.switch_cpus01.dtb.flush_tlb_asid             0                       # Number of times TLB was flushed by ASID
system.switch_cpus01.dtb.flush_entries              0                       # Number of entries that have been flushed from TLB
system.switch_cpus01.dtb.align_faults               0                       # Number of TLB faults due to alignment restrictions
system.switch_cpus01.dtb.prefetch_faults            0                       # Number of TLB faults due to prefetch
system.switch_cpus01.dtb.domain_faults              0                       # Number of TLB faults due to domain restrictions
system.switch_cpus01.dtb.perms_faults               0                       # Number of TLB faults due to permissions restrictions
system.switch_cpus01.dtb.read_accesses              0                       # DTB read accesses
system.switch_cpus01.dtb.write_accesses             0                       # DTB write accesses
system.switch_cpus01.dtb.inst_accesses              0                       # ITB inst accesses
system.switch_cpus01.dtb.hits                       0                       # DTB hits
system.switch_cpus01.dtb.misses                     0                       # DTB misses
system.switch_cpus01.dtb.accesses                   0                       # DTB accesses
[...]
system.cpu15.icache.demand_avg_miss_latency::total 168943.348837                       # average overall miss latency
system.cpu15.icache.overall_avg_miss_latency::switch_cpus15.inst 168943.348837                       # average overall miss latency
system.cpu15.icache.overall_avg_miss_latency::total 168943.348837                       # average overall miss latency
system.cpu15.icache.blocked_cycles::no_mshrs            0                       # number of cycles access was blocked
system.cpu15.icache.blocked_cycles::no_targets            0                       # number of cycles access was blocked
system.cpu15.icache.blocked::no_mshrs               0                       # number of cycles access was blocked
system.cpu15.icache.blocked::no_targets             0                       # number of cycles access was blocked
system.cpu15.icache.avg_blocked_cycles::no_mshrs          nan                       # average number of cycles each access was blocked
system.cpu15.icache.avg_blocked_cycles::no_targets          nan                       # average number of cycles each access was blocked
system.cpu15.icache.fast_writes                     0                       # number of fast writes performed
system.cpu15.icache.cache_copies                    0                       # number of cache copies performed
system.cpu15.icache.ReadReq_mshr_hits::switch_cpus15.inst            6                       # number of ReadReq MSHR hits
system.cpu15.icache.ReadReq_mshr_hits::total            6                       # number of ReadReq MSHR hits
system.cpu15.icache.demand_mshr_hits::switch_cpus15.inst            6                       # number of demand (read+write) MSHR hits
system.cpu15.icache.demand_mshr_hits::total            6                       # number of demand (read+write) MSHR hits
system.cpu15.icache.overall_mshr_hits::switch_cpus15.inst            6                       # number of overall MSHR hits
system.cpu15.icache.overall_mshr_hits::total            6                       # number of overall MSHR hits
system.cpu15.icache.ReadReq_mshr_misses::switch_cpus15.inst           37                       # number of ReadReq MSHR misses
system.cpu15.icache.ReadReq_mshr_misses::total           37                       # number of ReadReq MSHR misses
system.cpu15.icache.demand_mshr_misses::switch_cpus15.inst           37                       # number of demand (read+write) MSHR misses
system.cpu15.icache.demand_mshr_misses::total           37                       # number of demand (read+write) MSHR misses
system.cpu15.icache.overall_mshr_misses::switch_cpus15.inst           37                       # number of overall MSHR misses
system.cpu15.icache.overall_mshr_misses::total           37                       # number of overall MSHR misses
system.cpu15.icache.ReadReq_mshr_miss_latency::switch_cpus15.inst      6266422                       # number of ReadReq MSHR miss cycles
system.cpu15.icache.ReadReq_mshr_miss_latency::total      6266422                       # number of ReadReq MSHR miss cycles
system.cpu15.icache.demand_mshr_miss_latency::switch_cpus15.inst      6266422                       # number of demand (read+write) MSHR miss cycles
system.cpu15.icache.demand_mshr_miss_latency::total      6266422                       # number of demand (read+write) MSHR miss cycles
system.cpu15.icache.overall_mshr_miss_latency::switch_cpus15.inst      6266422                       # number of overall MSHR miss cycles
system.cpu15.icache.overall_mshr_miss_latency::total      6266422                       # number of overall MSHR miss cycles
system.cpu15.icache.ReadReq_mshr_miss_rate::switch_cpus15.inst     0.000003                       # mshr miss rate for ReadReq accesses
system.cpu15.icache.ReadReq_mshr_miss_rate::total     0.000003                       # mshr miss rate for ReadReq accesses
system.cpu15.icache.demand_mshr_miss_rate::switch_cpus15.inst     0.000003                       # mshr miss rate for demand accesses
system.cpu15.icache.demand_mshr_miss_rate::total     0.000003                       # mshr miss rate for demand accesses
system.cpu15.icache.overall_mshr_miss_rate::switch_cpus15.inst     0.000003                       # mshr miss rate for overall accesses
system.cpu15.icache.overall_mshr_miss_rate::total     0.000003                       # mshr miss rate for overall accesses
system.cpu15.icache.ReadReq_avg_mshr_miss_latency::switch_cpus15.inst 169362.756757                       # average ReadReq mshr miss latency
system.cpu15.icache.ReadReq_avg_mshr_miss_latency::total 169362.756757                       # average ReadReq mshr miss latency
system.cpu15.icache.demand_avg_mshr_miss_latency::switch_cpus15.inst 169362.756757                       # average overall mshr miss latency
system.cpu15.icache.demand_avg_mshr_miss_latency::total 169362.756757                       # average overall mshr miss latency
system.cpu15.icache.overall_avg_mshr_miss_latency::switch_cpus15.inst 169362.756757                       # average overall mshr miss latency
system.cpu15.icache.overall_avg_mshr_miss_latency::total 169362.756757                       # average overall mshr miss latency
system.cpu15.icache.no_allocate_misses              0                       # Number of misses that were no-allocate
system.cpu15.dcache.replacements                49321                       # number of replacements
system.cpu15.dcache.tagsinuse                     256                       # Cycle average of tags in use
system.cpu15.dcache.total_refs              216625804                       # Total number of references to valid blocks.
system.cpu15.dcache.sampled_refs                49577                       # Sample count of references to valid blocks.
system.cpu15.dcache.avg_refs              4369.481897                       # Average number of references to valid blocks.
system.cpu15.dcache.warmup_cycle                    0                       # Cycle when the warmup percentage was hit.
system.cpu15.dcache.occ_blocks::switch_cpus15.data   199.924144                       # Average occupied blocks per requestor
system.cpu15.dcache.occ_blocks::cpu15.data    56.075856                       # Average occupied blocks per requestor
system.cpu15.dcache.occ_percent::switch_cpus15.data     0.780954                       # Average percentage of cache occupancy
system.cpu15.dcache.occ_percent::cpu15.data     0.219046                       # Average percentage of cache occupancy
system.cpu15.dcache.occ_percent::total              1                       # Average percentage of cache occupancy
system.cpu15.dcache.ReadReq_hits::switch_cpus15.data     16108025                       # number of ReadReq hits
system.cpu15.dcache.ReadReq_hits::total      16108025                       # number of ReadReq hits
system.cpu15.dcache.WriteReq_hits::switch_cpus15.data      3092077                       # number of WriteReq hits
system.cpu15.dcache.WriteReq_hits::total      3092077                       # number of WriteReq hits
system.cpu15.dcache.LoadLockedReq_hits::switch_cpus15.data         7299                       # number of LoadLockedReq hits
system.cpu15.dcache.LoadLockedReq_hits::total         7299                       # number of LoadLockedReq hits
system.cpu15.dcache.StoreCondReq_hits::switch_cpus15.data         7253                       # number of StoreCondReq hits
system.cpu15.dcache.StoreCondReq_hits::total         7253                       # number of StoreCondReq hits
system.cpu15.dcache.demand_hits::switch_cpus15.data     19200102                       # number of demand (read+write) hits
system.cpu15.dcache.demand_hits::total       19200102                       # number of demand (read+write) hits
system.cpu15.dcache.overall_hits::switch_cpus15.data     19200102                       # number of overall hits
system.cpu15.dcache.overall_hits::total      19200102                       # number of overall hits
system.cpu15.dcache.ReadReq_misses::switch_cpus15.data       171663                       # number of ReadReq misses
system.cpu15.dcache.ReadReq_misses::total       171663                       # number of ReadReq misses
system.cpu15.dcache.WriteReq_misses::switch_cpus15.data          298                       # number of WriteReq misses
system.cpu15.dcache.WriteReq_misses::total          298                       # number of WriteReq misses
system.cpu15.dcache.demand_misses::switch_cpus15.data       171961                       # number of demand (read+write) misses
system.cpu15.dcache.demand_misses::total       171961                       # number of demand (read+write) misses
system.cpu15.dcache.overall_misses::switch_cpus15.data       171961                       # number of overall misses
system.cpu15.dcache.overall_misses::total       171961                       # number of overall misses
system.cpu15.dcache.ReadReq_miss_latency::switch_cpus15.data  19400066382                       # number of ReadReq miss cycles
system.cpu15.dcache.ReadReq_miss_latency::total  19400066382                       # number of ReadReq miss cycles
system.cpu15.dcache.WriteReq_miss_latency::switch_cpus15.data     26686693                       # number of WriteReq miss cycles
system.cpu15.dcache.WriteReq_miss_latency::total     26686693                       # number of WriteReq miss cycles
system.cpu15.dcache.demand_miss_latency::switch_cpus15.data  19426753075                       # number of demand (read+write) miss cycles
system.cpu15.dcache.demand_miss_latency::total  19426753075                       # number of demand (read+write) miss cycles
system.cpu15.dcache.overall_miss_latency::switch_cpus15.data  19426753075                       # number of overall miss cycles
system.cpu15.dcache.overall_miss_latency::total  19426753075                       # number of overall miss cycles
system.cpu15.dcache.ReadReq_accesses::switch_cpus15.data     16279688                       # number of ReadReq accesses(hits+misses)
system.cpu15.dcache.ReadReq_accesses::total     16279688                       # number of ReadReq accesses(hits+misses)
system.cpu15.dcache.WriteReq_accesses::switch_cpus15.data      3092375                       # number of WriteReq accesses(hits+misses)
system.cpu15.dcache.WriteReq_accesses::total      3092375                       # number of WriteReq accesses(hits+misses)
system.cpu15.dcache.LoadLockedReq_accesses::switch_cpus15.data         7299                       # number of LoadLockedReq accesses(hits+misses)
system.cpu15.dcache.LoadLockedReq_accesses::total         7299                       # number of LoadLockedReq accesses(hits+misses)
system.cpu15.dcache.StoreCondReq_accesses::switch_cpus15.data         7253                       # number of StoreCondReq accesses(hits+misses)
system.cpu15.dcache.StoreCondReq_accesses::total         7253                       # number of StoreCondReq accesses(hits+misses)
system.cpu15.dcache.demand_accesses::switch_cpus15.data     19372063                       # number of demand (read+write) accesses
system.cpu15.dcache.demand_accesses::total     19372063                       # number of demand (read+write) accesses
system.cpu15.dcache.overall_accesses::switch_cpus15.data     19372063                       # number of overall (read+write) accesses
system.cpu15.dcache.overall_accesses::total     19372063                       # number of overall (read+write) accesses
system.cpu15.dcache.ReadReq_miss_rate::switch_cpus15.data     0.010545                       # miss rate for ReadReq accesses
system.cpu15.dcache.ReadReq_miss_rate::total     0.010545                       # miss rate for ReadReq accesses
system.cpu15.dcache.WriteReq_miss_rate::switch_cpus15.data     0.000096                       # miss rate for WriteReq accesses
system.cpu15.dcache.WriteReq_miss_rate::total     0.000096                       # miss rate for WriteReq accesses
system.cpu15.dcache.demand_miss_rate::switch_cpus15.data     0.008877                       # miss rate for demand accesses
system.cpu15.dcache.demand_miss_rate::total     0.008877                       # miss rate for demand accesses
system.cpu15.dcache.overall_miss_rate::switch_cpus15.data     0.008877                       # miss rate for overall accesses
system.cpu15.dcache.overall_miss_rate::total     0.008877                       # miss rate for overall accesses
system.cpu15.dcache.ReadReq_avg_miss_latency::switch_cpus15.data 113012.509289                       # average ReadReq miss latency
system.cpu15.dcache.ReadReq_avg_miss_latency::total 113012.509289                       # average ReadReq miss latency
system.cpu15.dcache.WriteReq_avg_miss_latency::switch_cpus15.data 89552.661074                       # average WriteReq miss latency
system.cpu15.dcache.WriteReq_avg_miss_latency::total 89552.661074                       # average WriteReq miss latency
system.cpu15.dcache.demand_avg_miss_latency::switch_cpus15.data 112971.854519                       # average overall miss latency
system.cpu15.dcache.demand_avg_miss_latency::total 112971.854519                       # average overall miss latency
system.cpu15.dcache.overall_avg_miss_latency::switch_cpus15.data 112971.854519                       # average overall miss latency
system.cpu15.dcache.overall_avg_miss_latency::total 112971.854519                       # average overall miss latency
system.cpu15.dcache.blocked_cycles::no_mshrs            0                       # number of cycles access was blocked
system.cpu15.dcache.blocked_cycles::no_targets            0                       # number of cycles access was blocked
system.cpu15.dcache.blocked::no_mshrs               0                       # number of cycles access was blocked
system.cpu15.dcache.blocked::no_targets             0                       # number of cycles access was blocked
system.cpu15.dcache.avg_blocked_cycles::no_mshrs          nan                       # average number of cycles each access was blocked
system.cpu15.dcache.avg_blocked_cycles::no_targets          nan                       # average number of cycles each access was blocked
system.cpu15.dcache.fast_writes                     0                       # number of fast writes performed
system.cpu15.dcache.cache_copies                    0                       # number of cache copies performed
system.cpu15.dcache.writebacks::writebacks         5820                       # number of writebacks
system.cpu15.dcache.writebacks::total            5820                       # number of writebacks
system.cpu15.dcache.ReadReq_mshr_hits::switch_cpus15.data       122404                       # number of ReadReq MSHR hits
system.cpu15.dcache.ReadReq_mshr_hits::total       122404                       # number of ReadReq MSHR hits
system.cpu15.dcache.WriteReq_mshr_hits::switch_cpus15.data          236                       # number of WriteReq MSHR hits
system.cpu15.dcache.WriteReq_mshr_hits::total          236                       # number of WriteReq MSHR hits
system.cpu15.dcache.demand_mshr_hits::switch_cpus15.data       122640                       # number of demand (read+write) MSHR hits
system.cpu15.dcache.demand_mshr_hits::total       122640                       # number of demand (read+write) MSHR hits
system.cpu15.dcache.overall_mshr_hits::switch_cpus15.data       122640                       # number of overall MSHR hits
system.cpu15.dcache.overall_mshr_hits::total       122640                       # number of overall MSHR hits
system.cpu15.dcache.ReadReq_mshr_misses::switch_cpus15.data        49259                       # number of ReadReq MSHR misses
system.cpu15.dcache.ReadReq_mshr_misses::total        49259                       # number of ReadReq MSHR misses
system.cpu15.dcache.WriteReq_mshr_misses::switch_cpus15.data           62                       # number of WriteReq MSHR misses
system.cpu15.dcache.WriteReq_mshr_misses::total           62                       # number of WriteReq MSHR misses
system.cpu15.dcache.demand_mshr_misses::switch_cpus15.data        49321                       # number of demand (read+write) MSHR misses
system.cpu15.dcache.demand_mshr_misses::total        49321                       # number of demand (read+write) MSHR misses
system.cpu15.dcache.overall_mshr_misses::switch_cpus15.data        49321                       # number of overall MSHR misses
system.cpu15.dcache.overall_mshr_misses::total        49321                       # number of overall MSHR misses
system.cpu15.dcache.ReadReq_mshr_miss_latency::switch_cpus15.data   5120167856                       # number of ReadReq MSHR miss cycles
system.cpu15.dcache.ReadReq_mshr_miss_latency::total   5120167856                       # number of ReadReq MSHR miss cycles
system.cpu15.dcache.WriteReq_mshr_miss_latency::switch_cpus15.data      4330296                       # number of WriteReq MSHR miss cycles
system.cpu15.dcache.WriteReq_mshr_miss_latency::total      4330296                       # number of WriteReq MSHR miss cycles
system.cpu15.dcache.demand_mshr_miss_latency::switch_cpus15.data   5124498152                       # number of demand (read+write) MSHR miss cycles
system.cpu15.dcache.demand_mshr_miss_latency::total   5124498152                       # number of demand (read+write) MSHR miss cycles
system.cpu15.dcache.overall_mshr_miss_latency::switch_cpus15.data   5124498152                       # number of overall MSHR miss cycles
system.cpu15.dcache.overall_mshr_miss_latency::total   5124498152                       # number of overall MSHR miss cycles
system.cpu15.dcache.ReadReq_mshr_miss_rate::switch_cpus15.data     0.003026                       # mshr miss rate for ReadReq accesses
system.cpu15.dcache.ReadReq_mshr_miss_rate::total     0.003026                       # mshr miss rate for ReadReq accesses
system.cpu15.dcache.WriteReq_mshr_miss_rate::switch_cpus15.data     0.000020                       # mshr miss rate for WriteReq accesses
system.cpu15.dcache.WriteReq_mshr_miss_rate::total     0.000020                       # mshr miss rate for WriteReq accesses
system.cpu15.dcache.demand_mshr_miss_rate::switch_cpus15.data     0.002546                       # mshr miss rate for demand accesses
system.cpu15.dcache.demand_mshr_miss_rate::total     0.002546                       # mshr miss rate for demand accesses
system.cpu15.dcache.overall_mshr_miss_rate::switch_cpus15.data     0.002546                       # mshr miss rate for overall accesses
system.cpu15.dcache.overall_mshr_miss_rate::total     0.002546                       # mshr miss rate for overall accesses
system.cpu15.dcache.ReadReq_avg_mshr_miss_latency::switch_cpus15.data 103943.804300                       # average ReadReq mshr miss latency
system.cpu15.dcache.ReadReq_avg_mshr_miss_latency::total 103943.804300                       # average ReadReq mshr miss latency
system.cpu15.dcache.WriteReq_avg_mshr_miss_latency::switch_cpus15.data 69843.483871                       # average WriteReq mshr miss latency
system.cpu15.dcache.WriteReq_avg_mshr_miss_latency::total 69843.483871                       # average WriteReq mshr miss latency
system.cpu15.dcache.demand_avg_mshr_miss_latency::switch_cpus15.data 103900.937775                       # average overall mshr miss latency
system.cpu15.dcache.demand_avg_mshr_miss_latency::total 103900.937775                       # average overall mshr miss latency
system.cpu15.dcache.overall_avg_mshr_miss_latency::switch_cpus15.data 103900.937775                       # average overall mshr miss latency
system.cpu15.dcache.overall_avg_mshr_miss_latency::total 103900.937775                       # average overall mshr miss latency
system.cpu15.dcache.no_allocate_misses              0                       # Number of misses that were no-allocate

---------- End Simulation Statistics   ----------
