
---------- Begin Simulation Statistics ----------
sim_seconds                                  0.003808                       # Number of seconds simulated
sim_ticks                                  3807916398                       # Number of ticks simulated
final_tick                               533372296335                       # Number of ticks from beginning of simulation (restored from checkpoints and never reset)
sim_freq                                 1000000000000                       # Frequency of simulated ticks
host_inst_rate                                 337265                       # Simulator instruction rate (inst/s)
host_op_rate                                   426843                       # Simulator op (including micro ops) rate (op/s)
host_tick_rate                                 316818                       # Simulator tick rate (ticks/s)
host_mem_usage                               16922608                       # Number of bytes of host memory used
host_seconds                                 12019.27                       # Real time elapsed on the host
sim_insts                                  4053684188                       # Number of instructions simulated
sim_ops                                    5130337423                       # Number of ops (including micro ops) simulated
system.physmem.bytes_read::switch_cpus0.inst         1408                       # Number of bytes read from this memory
system.physmem.bytes_read::switch_cpus0.data       391296                       # Number of bytes read from this memory
system.physmem.bytes_read::switch_cpus1.inst         1792                       # Number of bytes read from this memory
system.physmem.bytes_read::switch_cpus1.data       168064                       # Number of bytes read from this memory
system.physmem.bytes_read::switch_cpus2.inst         2048                       # Number of bytes read from this memory
system.physmem.bytes_read::switch_cpus2.data       114048                       # Number of bytes read from this memory
system.physmem.bytes_read::switch_cpus3.inst         1664                       # Number of bytes read from this memory
system.physmem.bytes_read::switch_cpus3.data       225280                       # Number of bytes read from this memory
system.physmem.bytes_read::total               905600                       # Number of bytes read from this memory
system.physmem.bytes_inst_read::switch_cpus0.inst         1408                       # Number of instructions bytes read from this memory
system.physmem.bytes_inst_read::switch_cpus1.inst         1792                       # Number of instructions bytes read from this memory
system.physmem.bytes_inst_read::switch_cpus2.inst         2048                       # Number of instructions bytes read from this memory
system.physmem.bytes_inst_read::switch_cpus3.inst         1664                       # Number of instructions bytes read from this memory
system.physmem.bytes_inst_read::total            6912                       # Number of instructions bytes read from this memory
system.physmem.bytes_written::writebacks       343552                       # Number of bytes written to this memory
system.physmem.bytes_written::total            343552                       # Number of bytes written to this memory
system.physmem.num_reads::switch_cpus0.inst           11                       # Number of read requests responded to by this memory
system.physmem.num_reads::switch_cpus0.data         3057                       # Number of read requests responded to by this memory
system.physmem.num_reads::switch_cpus1.inst           14                       # Number of read requests responded to by this memory
system.physmem.num_reads::switch_cpus1.data         1313                       # Number of read requests responded to by this memory
system.physmem.num_reads::switch_cpus2.inst           16                       # Number of read requests responded to by this memory
system.physmem.num_reads::switch_cpus2.data          891                       # Number of read requests responded to by this memory
system.physmem.num_reads::switch_cpus3.inst           13                       # Number of read requests responded to by this memory
system.physmem.num_reads::switch_cpus3.data         1760                       # Number of read requests responded to by this memory
system.physmem.num_reads::total                  7075                       # Number of read requests responded to by this memory
system.physmem.num_writes::writebacks            2684                       # Number of write requests responded to by this memory
system.physmem.num_writes::functional               0                       # Number of write requests responded to by this memory
system.physmem.num_writes::interrupt                0                       # Number of write requests responded to by this memory
system.physmem.num_writes::switch_cpus0.dtb.walker            0                       # Number of write requests responded to by this memory
system.physmem.num_writes::switch_cpus0.itb.walker            0                       # Number of write requests responded to by this memory
system.physmem.num_writes::switch_cpus0.inst            0                       # Number of write requests responded to by this memory
system.physmem.num_writes::switch_cpus0.data            0                       # Number of write requests responded to by this memory
system.physmem.num_writes::switch_cpus1.dtb.walker            0                       # Number of write requests responded to by this memory
system.physmem.num_writes::switch_cpus1.itb.walker            0                       # Number of write requests responded to by this memory
system.physmem.num_writes::switch_cpus1.inst            0                       # Number of write requests responded to by this memory
system.physmem.num_writes::switch_cpus1.data            0                       # Number of write requests responded to by this memory
system.physmem.num_writes::switch_cpus2.dtb.walker            0                       # Number of write requests responded to by this memory
system.physmem.num_writes::switch_cpus2.itb.walker            0                       # Number of write requests responded to by this memory
system.physmem.num_writes::switch_cpus2.inst            0                       # Number of write requests responded to by this memory
system.physmem.num_writes::switch_cpus2.data            0                       # Number of write requests responded to by this memory
system.physmem.num_writes::switch_cpus3.dtb.walker            0                       # Number of write requests responded to by this memory
system.physmem.num_writes::switch_cpus3.itb.walker            0                       # Number of write requests responded to by this memory
system.physmem.num_writes::switch_cpus3.inst            0                       # Number of write requests responded to by this memory
system.physmem.num_writes::switch_cpus3.data            0                       # Number of write requests responded to by this memory
system.physmem.num_writes::cpu0.dtb.walker            0                       # Number of write requests responded to by this memory
system.physmem.num_writes::cpu0.itb.walker            0                       # Number of write requests responded to by this memory
system.physmem.num_writes::cpu0.inst                0                       # Number of write requests responded to by this memory
system.physmem.num_writes::cpu0.data                0                       # Number of write requests responded to by this memory
system.physmem.num_writes::cpu1.dtb.walker            0                       # Number of write requests responded to by this memory
system.physmem.num_writes::cpu1.itb.walker            0                       # Number of write requests responded to by this memory
system.physmem.num_writes::cpu1.inst                0                       # Number of write requests responded to by this memory
system.physmem.num_writes::cpu1.data                0                       # Number of write requests responded to by this memory
system.physmem.num_writes::cpu2.dtb.walker            0                       # Number of write requests responded to by this memory
system.physmem.num_writes::cpu2.itb.walker            0                       # Number of write requests responded to by this memory
system.physmem.num_writes::cpu2.inst                0                       # Number of write requests responded to by this memory
system.physmem.num_writes::cpu2.data                0                       # Number of write requests responded to by this memory
system.physmem.num_writes::cpu3.dtb.walker            0                       # Number of write requests responded to by this memory
system.physmem.num_writes::cpu3.itb.walker            0                       # Number of write requests responded to by this memory
system.physmem.num_writes::cpu3.inst                0                       # Number of write requests responded to by this memory
system.physmem.num_writes::cpu3.data                0                       # Number of write requests responded to by this memory
system.physmem.num_writes::total                 2684                       # Number of write requests responded to by this memory
system.physmem.bw_read::switch_cpus0.inst       369756                       # Total read bandwidth from this memory (bytes/s)
system.physmem.bw_read::switch_cpus0.data    102758559                       # Total read bandwidth from this memory (bytes/s)
system.physmem.bw_read::switch_cpus1.inst       470599                       # Total read bandwidth from this memory (bytes/s)
system.physmem.bw_read::switch_cpus1.data     44135423                       # Total read bandwidth from this memory (bytes/s)
system.physmem.bw_read::switch_cpus2.inst       537827                       # Total read bandwidth from this memory (bytes/s)
system.physmem.bw_read::switch_cpus2.data     29950237                       # Total read bandwidth from this memory (bytes/s)
system.physmem.bw_read::switch_cpus3.inst       436984                       # Total read bandwidth from this memory (bytes/s)
system.physmem.bw_read::switch_cpus3.data     59160963                       # Total read bandwidth from this memory (bytes/s)
system.physmem.bw_read::total               237820347                       # Total read bandwidth from this memory (bytes/s)
system.physmem.bw_inst_read::switch_cpus0.inst       369756                       # Instruction read bandwidth from this memory (bytes/s)
system.physmem.bw_inst_read::switch_cpus1.inst       470599                       # Instruction read bandwidth from this memory (bytes/s)
system.physmem.bw_inst_read::switch_cpus2.inst       537827                       # Instruction read bandwidth from this memory (bytes/s)
system.physmem.bw_inst_read::switch_cpus3.inst       436984                       # Instruction read bandwidth from this memory (bytes/s)
system.physmem.bw_inst_read::total            1815166                       # Instruction read bandwidth from this memory (bytes/s)
system.physmem.bw_write::writebacks          90220468                       # Write bandwidth from this memory (bytes/s)
system.physmem.bw_write::total               90220468                       # Write bandwidth from this memory (bytes/s)
system.physmem.bw_total::writebacks          90220468                       # Total bandwidth to/from this memory (bytes/s)
system.physmem.bw_total::switch_cpus0.inst       369756                       # Total bandwidth to/from this memory (bytes/s)
system.physmem.bw_total::switch_cpus0.data    102758559                       # Total bandwidth to/from this memory (bytes/s)
system.physmem.bw_total::switch_cpus1.inst       470599                       # Total bandwidth to/from this memory (bytes/s)
system.physmem.bw_total::switch_cpus1.data     44135423                       # Total bandwidth to/from this memory (bytes/s)
system.physmem.bw_total::switch_cpus2.inst       537827                       # Total bandwidth to/from this memory (bytes/s)
system.physmem.bw_total::switch_cpus2.data     29950237                       # Total bandwidth to/from this memory (bytes/s)
system.physmem.bw_total::switch_cpus3.inst       436984                       # Total bandwidth to/from this memory (bytes/s)
system.physmem.bw_total::switch_cpus3.data     59160963                       # Total bandwidth to/from this memory (bytes/s)
system.physmem.bw_total::total              328040815                       # Total bandwidth to/from this memory (bytes/s)
system.switch_cpus0.dtb.inst_hits                   0                       # ITB inst hits
system.switch_cpus0.dtb.inst_misses                 0                       # ITB inst misses
system.switch_cpus0.dtb.read_hits                   0                       # DTB read hits
system.switch_cpus0.dtb.read_misses                 0                       # DTB read misses
system.switch_cpus0.dtb.write_hits                  0                       # DTB write hits
system.switch_cpus0.dtb.write_misses                0                       # DTB write misses
system.switch_cpus0.dtb.flush_tlb                   0                       # Number of times complete TLB was flushed
system.switch_cpus0.dtb.flush_tlb_mva               0                       # Number of times TLB was flushed by MVA
system.switch_cpus0.dtb.flush_tlb_mva_asid            0                       # Number of times TLB was flushed by MVA & ASID
system.switch_cpus0.dtb.flush_tlb_asid              0                       # Number of times TLB was flushed by ASID
system.switch_cpus0.dtb.flush_entries               0                       # Number of entries that have been flushed from TLB
system.switch_cpus0.dtb.align_faults                0                       # Number of TLB faults due to alignment restrictions
system.switch_cpus0.dtb.prefetch_faults             0                       # Number of TLB faults due to prefetch
system.switch_cpus0.dtb.domain_faults               0                       # Number of TLB faults due to domain restrictions
system.switch_cpus0.dtb.perms_faults                0                       # Number of TLB faults due to permissions restrictions
system.switch_cpus0.dtb.read_accesses               0                       # DTB read accesses
system.switch_cpus0.dtb.write_accesses              0                       # DTB write accesses
system.switch_cpus0.dtb.inst_accesses               0                       # ITB inst accesses
system.switch_cpus0.dtb.hits                        0                       # DTB hits
system.switch_cpus0.dtb.misses                      0                       # DTB misses
system.switch_cpus0.dtb.accesses                    0                       # DTB accesses
system.switch_cpus0.itb.inst_hits                   0                       # ITB inst hits
system.switch_cpus0.itb.inst_misses                 0                       # ITB inst misses
system.switch_cpus0.itb.read_hits                   0                       # DTB read hits
system.switch_cpus0.itb.read_misses                 0                       # DTB read misses
system.switch_cpus0.itb.write_hits                  0                       # DTB write hits
system.switch_cpus0.itb.write_misses                0                       # DTB write misses
system.switch_cpus0.itb.flush_tlb                   0                       # Number of times complete TLB was flushed
system.switch_cpus0.itb.flush_tlb_mva               0                       # Number of times TLB was flushed by MVA
system.switch_cpus0.itb.flush_tlb_mva_asid            0                       # Number of times TLB was flushed by MVA & ASID
system.switch_cpus0.itb.flush_tlb_asid              0                       # Number of times TLB was flushed by ASID
system.switch_cpus0.itb.flush_entries               0                       # Number of entries that have been flushed from TLB
system.switch_cpus0.itb.align_faults                0                       # Number of TLB faults due to alignment restrictions
system.switch_cpus0.itb.prefetch_faults             0                       # Number of TLB faults due to prefetch
system.switch_cpus0.itb.domain_faults               0                       # Number of TLB faults due to domain restrictions
system.switch_cpus0.itb.perms_faults                0                       # Number of TLB faults due to permissions restrictions
system.switch_cpus0.itb.read_accesses               0                       # DTB read accesses
system.switch_cpus0.itb.write_accesses              0                       # DTB write accesses
system.switch_cpus0.itb.inst_accesses               0                       # ITB inst accesses
system.switch_cpus0.itb.hits                        0                       # DTB hits
system.switch_cpus0.itb.misses                      0                       # DTB misses
system.switch_cpus0.itb.accesses                    0                       # DTB accesses
system.cpu0.workload.num_syscalls                   0                       # Number of system calls
system.switch_cpus0.numCycles                 9131695                       # number of cpu cycles simulated
system.switch_cpus0.numWorkItemsStarted             0                       # number of work items this cpu started
system.switch_cpus0.numWorkItemsCompleted            0                       # number of work items this cpu completed
system.switch_cpus0.BPredUnit.lookups         3108186                       # Number of BP lookups
system.switch_cpus0.BPredUnit.condPredicted      2551975                       # Number of conditional branches predicted
system.switch_cpus0.BPredUnit.condIncorrect       202688                       # Number of conditional branches incorrect
system.switch_cpus0.BPredUnit.BTBLookups      1262223                       # Number of BTB lookups
system.switch_cpus0.BPredUnit.BTBHits         1204303                       # Number of BTB hits
system.switch_cpus0.BPredUnit.BTBCorrect            0                       # Number of correct BTB predictions (this stat may not work properly.
system.switch_cpus0.BPredUnit.usedRAS          314004                       # Number of times the RAS was used to get a target.
system.switch_cpus0.BPredUnit.RASInCorrect         8843                       # Number of incorrect RAS predictions.
system.switch_cpus0.fetch.icacheStallCycles      3200004                       # Number of cycles fetch is stalled on an Icache miss
system.switch_cpus0.fetch.Insts              17054921                       # Number of instructions fetch has processed
system.switch_cpus0.fetch.Branches            3108186                       # Number of branches that fetch encountered
system.switch_cpus0.fetch.predictedBranches      1518307                       # Number of branches that fetch has predicted taken
system.switch_cpus0.fetch.Cycles              3660778                       # Number of cycles fetch has run and was not squashing or blocked
system.switch_cpus0.fetch.SquashCycles        1083058                       # Number of cycles fetch has spent squashing
system.switch_cpus0.fetch.BlockedCycles        946605                       # Number of cycles fetch has spent blocked
system.switch_cpus0.fetch.PendingTrapStallCycles            1                       # Number of stall cycles due to pending traps
system.switch_cpus0.fetch.CacheLines          1565096                       # Number of cache lines fetched
system.switch_cpus0.fetch.IcacheSquashes        80775                       # Number of outstanding Icache misses that were squashed
system.switch_cpus0.fetch.rateDist::samples      8684723                       # Number of instructions fetched each cycle (Total)
system.switch_cpus0.fetch.rateDist::mean     2.413658                       # Number of instructions fetched each cycle (Total)
system.switch_cpus0.fetch.rateDist::stdev     3.313195                       # Number of instructions fetched each cycle (Total)
system.switch_cpus0.fetch.rateDist::underflows            0      0.00%      0.00% # Number of instructions fetched each cycle (Total)
system.switch_cpus0.fetch.rateDist::0         5023945     57.85%     57.85% # Number of instructions fetched each cycle (Total)
system.switch_cpus0.fetch.rateDist::1          365701      4.21%     62.06% # Number of instructions fetched each cycle (Total)
system.switch_cpus0.fetch.rateDist::2          318495      3.67%     65.73% # Number of instructions fetched each cycle (Total)
system.switch_cpus0.fetch.rateDist::3          342331      3.94%     69.67% # Number of instructions fetched each cycle (Total)
system.switch_cpus0.fetch.rateDist::4          301028      3.47%     73.13% # Number of instructions fetched each cycle (Total)
system.switch_cpus0.fetch.rateDist::5          154580      1.78%     74.91% # Number of instructions fetched each cycle (Total)
system.switch_cpus0.fetch.rateDist::6          101492      1.17%     76.08% # Number of instructions fetched each cycle (Total)
system.switch_cpus0.fetch.rateDist::7          270902      3.12%     79.20% # Number of instructions fetched each cycle (Total)
system.switch_cpus0.fetch.rateDist::8         1806249     20.80%    100.00% # Number of instructions fetched each cycle (Total)
system.switch_cpus0.fetch.rateDist::overflows            0      0.00%    100.00% # Number of instructions fetched each cycle (Total)
system.switch_cpus0.fetch.rateDist::min_value            0                       # Number of instructions fetched each cycle (Total)
system.switch_cpus0.fetch.rateDist::max_value            8                       # Number of instructions fetched each cycle (Total)
system.switch_cpus0.fetch.rateDist::total      8684723                       # Number of instructions fetched each cycle (Total)
system.switch_cpus0.fetch.branchRate         0.340373                       # Number of branch fetches per cycle
system.switch_cpus0.fetch.rate               1.867662                       # Number of inst fetches per cycle
system.switch_cpus0.decode.IdleCycles         3369064                       # Number of cycles decode is idle
system.switch_cpus0.decode.BlockedCycles       902955                       # Number of cycles decode is blocked
system.switch_cpus0.decode.RunCycles          3479481                       # Number of cycles decode is running
system.switch_cpus0.decode.UnblockCycles        56722                       # Number of cycles decode is unblocking
system.switch_cpus0.decode.SquashCycles        876492                       # Number of cycles decode is squashing
system.switch_cpus0.decode.BranchResolved       506596                       # Number of times decode resolved a branch
system.switch_cpus0.decode.BranchMispred          884                       # Number of times decode detected a branch misprediction
system.switch_cpus0.decode.DecodedInsts      20225173                       # Number of instructions handled by decode
system.switch_cpus0.decode.SquashedInsts         6338                       # Number of squashed instructions handled by decode
system.switch_cpus0.rename.SquashCycles        876492                       # Number of cycles rename is squashing
system.switch_cpus0.rename.IdleCycles         3537395                       # Number of cycles rename is idle
system.switch_cpus0.rename.BlockCycles         514838                       # Number of cycles rename is blocking
system.switch_cpus0.rename.serializeStallCycles       108582                       # count of cycles rename stalled for serializing inst
system.switch_cpus0.rename.RunCycles          3363908                       # Number of cycles rename is running
system.switch_cpus0.rename.UnblockCycles       283500                       # Number of cycles rename is unblocking
system.switch_cpus0.rename.RenamedInsts      19535829                       # Number of instructions processed by rename
system.switch_cpus0.rename.ROBFullEvents          531                       # Number of times rename has blocked due to ROB full
system.switch_cpus0.rename.IQFullEvents        179118                       # Number of times rename has blocked due to IQ full
system.switch_cpus0.rename.LSQFullEvents        76566                       # Number of times rename has blocked due to LSQ full
system.switch_cpus0.rename.FullRegisterEvents            7                       # Number of times there has been no free registers
system.switch_cpus0.rename.RenamedOperands     27123173                       # Number of destination operands rename has renamed
system.switch_cpus0.rename.RenameLookups     91071246                       # Number of register rename lookups that rename has made
system.switch_cpus0.rename.int_rename_lookups     91071246                       # Number of integer rename lookups
system.switch_cpus0.rename.CommittedMaps     16806914                       # Number of HB maps that are committed
system.switch_cpus0.rename.UndoneMaps        10316182                       # Number of HB maps that are undone due to squashing
system.switch_cpus0.rename.serializingInsts         3308                       # count of serializing insts renamed
system.switch_cpus0.rename.tempSerializingInsts         1710                       # count of temporary serializing insts renamed
system.switch_cpus0.rename.skidInsts           750569                       # count of insts added to the skid buffer
system.switch_cpus0.memDep0.insertedLoads      1936875                       # Number of loads inserted to the mem dependence unit.
system.switch_cpus0.memDep0.insertedStores      1007574                       # Number of stores inserted to the mem dependence unit.
system.switch_cpus0.memDep0.conflictingLoads        25924                       # Number of conflicting loads.
system.switch_cpus0.memDep0.conflictingStores       372449                       # Number of conflicting stores.
system.switch_cpus0.iq.iqInstsAdded          18413851                       # Number of instructions added to the IQ (excludes non-spec)
system.switch_cpus0.iq.iqNonSpecInstsAdded         3304                       # Number of non-speculative instructions added to the IQ
system.switch_cpus0.iq.iqInstsIssued         14759923                       # Number of instructions issued
system.switch_cpus0.iq.iqSquashedInstsIssued        28497                       # Number of squashed instructions issued
system.switch_cpus0.iq.iqSquashedInstsExamined      6139874                       # Number of squashed instructions iterated over during squash; mainly for profiling
system.switch_cpus0.iq.iqSquashedOperandsExamined     18800730                       # Number of squashed operands that are examined and possibly removed from graph
system.switch_cpus0.iq.iqSquashedNonSpecRemoved          108                       # Number of squashed non-spec instructions that were removed
system.switch_cpus0.iq.issued_per_cycle::samples      8684723                       # Number of insts issued each cycle
system.switch_cpus0.iq.issued_per_cycle::mean     1.699527                       # Number of insts issued each cycle
system.switch_cpus0.iq.issued_per_cycle::stdev     1.898434                       # Number of insts issued each cycle
system.switch_cpus0.iq.issued_per_cycle::underflows            0      0.00%      0.00% # Number of insts issued each cycle
system.switch_cpus0.iq.issued_per_cycle::0      3258121     37.52%     37.52% # Number of insts issued each cycle
system.switch_cpus0.iq.issued_per_cycle::1      1776426     20.45%     57.97% # Number of insts issued each cycle
system.switch_cpus0.iq.issued_per_cycle::2      1223825     14.09%     72.06% # Number of insts issued each cycle
system.switch_cpus0.iq.issued_per_cycle::3       765786      8.82%     80.88% # Number of insts issued each cycle
system.switch_cpus0.iq.issued_per_cycle::4       740620      8.53%     89.41% # Number of insts issued each cycle
system.switch_cpus0.iq.issued_per_cycle::5       446139      5.14%     94.54% # Number of insts issued each cycle
system.switch_cpus0.iq.issued_per_cycle::6       335662      3.86%     98.41% # Number of insts issued each cycle
system.switch_cpus0.iq.issued_per_cycle::7        73810      0.85%     99.26% # Number of insts issued each cycle
system.switch_cpus0.iq.issued_per_cycle::8        64334      0.74%    100.00% # Number of insts issued each cycle
system.switch_cpus0.iq.issued_per_cycle::overflows            0      0.00%    100.00% # Number of insts issued each cycle
system.switch_cpus0.iq.issued_per_cycle::min_value            0                       # Number of insts issued each cycle
system.switch_cpus0.iq.issued_per_cycle::max_value            8                       # Number of insts issued each cycle
system.switch_cpus0.iq.issued_per_cycle::total      8684723                       # Number of insts issued each cycle
system.switch_cpus0.iq.fu_full::No_OpClass            0      0.00%      0.00% # attempts to use FU when none available
system.switch_cpus0.iq.fu_full::IntAlu         108044     69.46%     69.46% # attempts to use FU when none available
system.switch_cpus0.iq.fu_full::IntMult             5      0.00%     69.47% # attempts to use FU when none available
system.switch_cpus0.iq.fu_full::IntDiv              0      0.00%     69.47% # attempts to use FU when none available
system.switch_cpus0.iq.fu_full::FloatAdd            0      0.00%     69.47% # attempts to use FU when none available
system.switch_cpus0.iq.fu_full::FloatCmp            0      0.00%     69.47% # attempts to use FU when none available
system.switch_cpus0.iq.fu_full::FloatCvt            0      0.00%     69.47% # attempts to use FU when none available
system.switch_cpus0.iq.fu_full::FloatMult            0      0.00%     69.47% # attempts to use FU when none available
system.switch_cpus0.iq.fu_full::FloatDiv            0      0.00%     69.47% # attempts to use FU when none available
system.switch_cpus0.iq.fu_full::FloatSqrt            0      0.00%     69.47% # attempts to use FU when none available
system.switch_cpus0.iq.fu_full::SimdAdd             0      0.00%     69.47% # attempts to use FU when none available
system.switch_cpus0.iq.fu_full::SimdAddAcc            0      0.00%     69.47% # attempts to use FU when none available
system.switch_cpus0.iq.fu_full::SimdAlu             0      0.00%     69.47% # attempts to use FU when none available
system.switch_cpus0.iq.fu_full::SimdCmp             0      0.00%     69.47% # attempts to use FU when none available
system.switch_cpus0.iq.fu_full::SimdCvt             0      0.00%     69.47% # attempts to use FU when none available
system.switch_cpus0.iq.fu_full::SimdMisc            0      0.00%     69.47% # attempts to use FU when none available
system.switch_cpus0.iq.fu_full::SimdMult            0      0.00%     69.47% # attempts to use FU when none available
system.switch_cpus0.iq.fu_full::SimdMultAcc            0      0.00%     69.47% # attempts to use FU when none available
system.switch_cpus0.iq.fu_full::SimdShift            0      0.00%     69.47% # attempts to use FU when none available
system.switch_cpus0.iq.fu_full::SimdShiftAcc            0      0.00%     69.47% # attempts to use FU when none available
system.switch_cpus0.iq.fu_full::SimdSqrt            0      0.00%     69.47% # attempts to use FU when none available
system.switch_cpus0.iq.fu_full::SimdFloatAdd            0      0.00%     69.47% # attempts to use FU when none available
system.switch_cpus0.iq.fu_full::SimdFloatAlu            0      0.00%     69.47% # attempts to use FU when none available
system.switch_cpus0.iq.fu_full::SimdFloatCmp            0      0.00%     69.47% # attempts to use FU when none available
system.switch_cpus0.iq.fu_full::SimdFloatCvt            0      0.00%     69.47% # attempts to use FU when none available
system.switch_cpus0.iq.fu_full::SimdFloatDiv            0      0.00%     69.47% # attempts to use FU when none available
system.switch_cpus0.iq.fu_full::SimdFloatMisc            0      0.00%     69.47% # attempts to use FU when none available
system.switch_cpus0.iq.fu_full::SimdFloatMult            0      0.00%     69.47% # attempts to use FU when none available
system.switch_cpus0.iq.fu_full::SimdFloatMultAcc            0      0.00%     69.47% # attempts to use FU when none available
system.switch_cpus0.iq.fu_full::SimdFloatSqrt            0      0.00%     69.47% # attempts to use FU when none available
system.switch_cpus0.iq.fu_full::MemRead         21224     13.65%     83.11% # attempts to use FU when none available
system.switch_cpus0.iq.fu_full::MemWrite        26268     16.89%    100.00% # attempts to use FU when none available
system.switch_cpus0.iq.fu_full::IprAccess            0      0.00%    100.00% # attempts to use FU when none available
system.switch_cpus0.iq.fu_full::InstPrefetch            0      0.00%    100.00% # attempts to use FU when none available
system.switch_cpus0.iq.FU_type_0::No_OpClass            0      0.00%      0.00% # Type of FU issued
system.switch_cpus0.iq.FU_type_0::IntAlu     12136052     82.22%     82.22% # Type of FU issued
system.switch_cpus0.iq.FU_type_0::IntMult       200809      1.36%     83.58% # Type of FU issued
system.switch_cpus0.iq.FU_type_0::IntDiv            0      0.00%     83.58% # Type of FU issued
system.switch_cpus0.iq.FU_type_0::FloatAdd            0      0.00%     83.58% # Type of FU issued
system.switch_cpus0.iq.FU_type_0::FloatCmp            0      0.00%     83.58% # Type of FU issued
system.switch_cpus0.iq.FU_type_0::FloatCvt            0      0.00%     83.58% # Type of FU issued
system.switch_cpus0.iq.FU_type_0::FloatMult            0      0.00%     83.58% # Type of FU issued
system.switch_cpus0.iq.FU_type_0::FloatDiv            0      0.00%     83.58% # Type of FU issued
system.switch_cpus0.iq.FU_type_0::FloatSqrt            0      0.00%     83.58% # Type of FU issued
system.switch_cpus0.iq.FU_type_0::SimdAdd            0      0.00%     83.58% # Type of FU issued
system.switch_cpus0.iq.FU_type_0::SimdAddAcc            0      0.00%     83.58% # Type of FU issued
system.switch_cpus0.iq.FU_type_0::SimdAlu            0      0.00%     83.58% # Type of FU issued
system.switch_cpus0.iq.FU_type_0::SimdCmp            0      0.00%     83.58% # Type of FU issued
system.switch_cpus0.iq.FU_type_0::SimdCvt            0      0.00%     83.58% # Type of FU issued
system.switch_cpus0.iq.FU_type_0::SimdMisc            0      0.00%     83.58% # Type of FU issued
system.switch_cpus0.iq.FU_type_0::SimdMult            0      0.00%     83.58% # Type of FU issued
system.switch_cpus0.iq.FU_type_0::SimdMultAcc            0      0.00%     83.58% # Type of FU issued
system.switch_cpus0.iq.FU_type_0::SimdShift            0      0.00%     83.58% # Type of FU issued
system.switch_cpus0.iq.FU_type_0::SimdShiftAcc            0      0.00%     83.58% # Type of FU issued
system.switch_cpus0.iq.FU_type_0::SimdSqrt            0      0.00%     83.58% # Type of FU issued
system.switch_cpus0.iq.FU_type_0::SimdFloatAdd            0      0.00%     83.58% # Type of FU issued
system.switch_cpus0.iq.FU_type_0::SimdFloatAlu            0      0.00%     83.58% # Type of FU issued
system.switch_cpus0.iq.FU_type_0::SimdFloatCmp            0      0.00%     83.58% # Type of FU issued
system.switch_cpus0.iq.FU_type_0::SimdFloatCvt            0      0.00%     83.58% # Type of FU issued
system.switch_cpus0.iq.FU_type_0::SimdFloatDiv            0      0.00%     83.58% # Type of FU issued
system.switch_cpus0.iq.FU_type_0::SimdFloatMisc         1597      0.01%     83.59% # Type of FU issued
system.switch_cpus0.iq.FU_type_0::SimdFloatMult            0      0.00%     83.59% # Type of FU issued
system.switch_cpus0.iq.FU_type_0::SimdFloatMultAcc            0      0.00%     83.59% # Type of FU issued
system.switch_cpus0.iq.FU_type_0::SimdFloatSqrt            0      0.00%     83.59% # Type of FU issued
system.switch_cpus0.iq.FU_type_0::MemRead      1577116     10.69%     94.28% # Type of FU issued
system.switch_cpus0.iq.FU_type_0::MemWrite       844349      5.72%    100.00% # Type of FU issued
system.switch_cpus0.iq.FU_type_0::IprAccess            0      0.00%    100.00% # Type of FU issued
system.switch_cpus0.iq.FU_type_0::InstPrefetch            0      0.00%    100.00% # Type of FU issued
system.switch_cpus0.iq.FU_type_0::total      14759923                       # Type of FU issued
system.switch_cpus0.iq.rate                  1.616340                       # Inst issue rate
system.switch_cpus0.iq.fu_busy_cnt             155541                       # FU busy when requested
system.switch_cpus0.iq.fu_busy_rate          0.010538                       # FU busy rate (busy events/executed inst)
system.switch_cpus0.iq.int_inst_queue_reads     38388605                       # Number of integer instruction queue reads
system.switch_cpus0.iq.int_inst_queue_writes     24557153                       # Number of integer instruction queue writes
system.switch_cpus0.iq.int_inst_queue_wakeup_accesses     14349116                       # Number of integer instruction queue wakeup accesses
system.switch_cpus0.iq.fp_inst_queue_reads            0                       # Number of floating instruction queue reads
system.switch_cpus0.iq.fp_inst_queue_writes            0                       # Number of floating instruction queue writes
system.switch_cpus0.iq.fp_inst_queue_wakeup_accesses            0                       # Number of floating instruction queue wakeup accesses
system.switch_cpus0.iq.int_alu_accesses      14915464                       # Number of integer alu accesses
system.switch_cpus0.iq.fp_alu_accesses              0                       # Number of floating point alu accesses
system.switch_cpus0.iew.lsq.thread0.forwLoads        26301                       # Number of loads that had data forwarded from stores
system.switch_cpus0.iew.lsq.thread0.invAddrLoads            0                       # Number of loads ignored due to an invalid address
system.switch_cpus0.iew.lsq.thread0.squashedLoads       707672                       # Number of loads squashed
system.switch_cpus0.iew.lsq.thread0.ignoredResponses           39                       # Number of memory responses ignored because the instruction is squashed
system.switch_cpus0.iew.lsq.thread0.memOrderViolation          127                       # Number of memory ordering violations
system.switch_cpus0.iew.lsq.thread0.squashedStores       227674                       # Number of stores squashed
system.switch_cpus0.iew.lsq.thread0.invAddrSwpfs            0                       # Number of software prefetches ignored due to an invalid address
system.switch_cpus0.iew.lsq.thread0.blockedLoads            0                       # Number of blocked loads due to partial load-store forwarding
system.switch_cpus0.iew.lsq.thread0.rescheduledLoads           67                       # Number of loads that were rescheduled
system.switch_cpus0.iew.lsq.thread0.cacheBlocked            0                       # Number of times an access to memory failed due to the cache being blocked
system.switch_cpus0.iew.iewIdleCycles               0                       # Number of cycles IEW is idle
system.switch_cpus0.iew.iewSquashCycles        876492                       # Number of cycles IEW is squashing
system.switch_cpus0.iew.iewBlockCycles         436568                       # Number of cycles IEW is blocking
system.switch_cpus0.iew.iewUnblockCycles        17156                       # Number of cycles IEW is unblocking
system.switch_cpus0.iew.iewDispatchedInsts     18417155                       # Number of instructions dispatched to IQ
system.switch_cpus0.iew.iewDispSquashedInsts        28276                       # Number of squashed instructions skipped by dispatch
system.switch_cpus0.iew.iewDispLoadInsts      1936875                       # Number of dispatched load instructions
system.switch_cpus0.iew.iewDispStoreInsts      1007574                       # Number of dispatched store instructions
system.switch_cpus0.iew.iewDispNonSpecInsts         1706                       # Number of dispatched non-speculative instructions
system.switch_cpus0.iew.iewIQFullEvents         11964                       # Number of times the IQ has become full, causing a stall
system.switch_cpus0.iew.iewLSQFullEvents          748                       # Number of times the LSQ has become full, causing a stall
system.switch_cpus0.iew.memOrderViolationEvents          127                       # Number of memory order violations
system.switch_cpus0.iew.predictedTakenIncorrect       122348                       # Number of branches that were predicted taken incorrectly
system.switch_cpus0.iew.predictedNotTakenIncorrect       114937                       # Number of branches that were predicted not taken incorrectly
system.switch_cpus0.iew.branchMispredicts       237285                       # Number of branch mispredicts detected at execute
system.switch_cpus0.iew.iewExecutedInsts     14505044                       # Number of executed instructions
system.switch_cpus0.iew.iewExecLoadInsts      1484543                       # Number of load instructions executed
system.switch_cpus0.iew.iewExecSquashedInsts       254877                       # Number of squashed instructions skipped in execute
system.switch_cpus0.iew.exec_swp                    0                       # number of swp insts executed
system.switch_cpus0.iew.exec_nop                    0                       # number of nop insts executed
system.switch_cpus0.iew.exec_refs             2306504                       # number of memory reference insts executed
system.switch_cpus0.iew.exec_branches         2056330                       # Number of branches executed
system.switch_cpus0.iew.exec_stores            821961                       # Number of stores executed
system.switch_cpus0.iew.exec_rate            1.588428                       # Inst execution rate
system.switch_cpus0.iew.wb_sent              14363319                       # cumulative count of insts sent to commit
system.switch_cpus0.iew.wb_count             14349116                       # cumulative count of insts written-back
system.switch_cpus0.iew.wb_producers          9357775                       # num instructions producing a value
system.switch_cpus0.iew.wb_consumers         26126796                       # num instructions consuming a value
system.switch_cpus0.iew.wb_penalized                0                       # number of instrctions required to write to 'other' IQ
system.switch_cpus0.iew.wb_rate              1.571353                       # insts written-back per cycle
system.switch_cpus0.iew.wb_fanout            0.358168                       # average fanout of values written-back
system.switch_cpus0.iew.wb_penalized_rate            0                       # fraction of instructions written-back that wrote to 'other' IQ
system.switch_cpus0.commit.commitCommittedInsts     10000000                       # The number of committed instructions
system.switch_cpus0.commit.commitCommittedOps     12239327                       # The number of committed instructions
system.switch_cpus0.commit.commitSquashedInsts      6178298                       # The number of squashed insts skipped by commit
system.switch_cpus0.commit.commitNonSpecStalls         3196                       # The number of times commit has been forced to stall to communicate backwards
system.switch_cpus0.commit.branchMispredicts       204792                       # The number of times a branch was mispredicted
system.switch_cpus0.commit.committed_per_cycle::samples      7808231                       # Number of insts commited each cycle
system.switch_cpus0.commit.committed_per_cycle::mean     1.567490                       # Number of insts commited each cycle
system.switch_cpus0.commit.committed_per_cycle::stdev     2.154069                       # Number of insts commited each cycle
system.switch_cpus0.commit.committed_per_cycle::underflows            0      0.00%      0.00% # Number of insts commited each cycle
system.switch_cpus0.commit.committed_per_cycle::0      3283199     42.05%     42.05% # Number of insts commited each cycle
system.switch_cpus0.commit.committed_per_cycle::1      2040955     26.14%     68.19% # Number of insts commited each cycle
system.switch_cpus0.commit.committed_per_cycle::2       833877     10.68%     78.87% # Number of insts commited each cycle
system.switch_cpus0.commit.committed_per_cycle::3       428061      5.48%     84.35% # Number of insts commited each cycle
system.switch_cpus0.commit.committed_per_cycle::4       369403      4.73%     89.08% # Number of insts commited each cycle
system.switch_cpus0.commit.committed_per_cycle::5       181992      2.33%     91.41% # Number of insts commited each cycle
system.switch_cpus0.commit.committed_per_cycle::6       202382      2.59%     94.00% # Number of insts commited each cycle
system.switch_cpus0.commit.committed_per_cycle::7       102325      1.31%     95.31% # Number of insts commited each cycle
system.switch_cpus0.commit.committed_per_cycle::8       366037      4.69%    100.00% # Number of insts commited each cycle
system.switch_cpus0.commit.committed_per_cycle::overflows            0      0.00%    100.00% # Number of insts commited each cycle
system.switch_cpus0.commit.committed_per_cycle::min_value            0                       # Number of insts commited each cycle
system.switch_cpus0.commit.committed_per_cycle::max_value            8                       # Number of insts commited each cycle
system.switch_cpus0.commit.committed_per_cycle::total      7808231                       # Number of insts commited each cycle
system.switch_cpus0.commit.committedInsts     10000000                       # Number of instructions committed
system.switch_cpus0.commit.committedOps      12239327                       # Number of ops (including micro ops) committed
system.switch_cpus0.commit.swp_count                0                       # Number of s/w prefetches committed
system.switch_cpus0.commit.refs               2009100                       # Number of memory references committed
system.switch_cpus0.commit.loads              1229200                       # Number of loads committed
system.switch_cpus0.commit.membars               1598                       # Number of memory barriers committed
system.switch_cpus0.commit.branches           1755939                       # Number of branches committed
system.switch_cpus0.commit.fp_insts                 0                       # Number of committed floating point instructions.
system.switch_cpus0.commit.int_insts         11011698                       # Number of committed integer instructions.
system.switch_cpus0.commit.function_calls       240662                       # Number of function calls committed.
system.switch_cpus0.commit.bw_lim_events       366037                       # number cycles where commit BW limit reached
system.switch_cpus0.commit.bw_limited               0                       # number of insts not committed due to BW limits
system.switch_cpus0.rob.rob_reads            25859819                       # The number of ROB reads
system.switch_cpus0.rob.rob_writes           37712723                       # The number of ROB writes
system.switch_cpus0.timesIdled                   4554                       # Number of times that the entire CPU went into an idle state and unscheduled itself
system.switch_cpus0.idleCycles                 446972                       # Total number of cycles that the CPU has spent unscheduled due to idling
system.switch_cpus0.committedInsts           10000000                       # Number of Instructions Simulated
system.switch_cpus0.committedOps             12239327                       # Number of Ops (including micro ops) Simulated
system.switch_cpus0.committedInsts_total     10000000                       # Number of Instructions Simulated
system.switch_cpus0.cpi                      0.913169                       # CPI: Cycles Per Instruction
system.switch_cpus0.cpi_total                0.913169                       # CPI: Total CPI of All Threads
system.switch_cpus0.ipc                      1.095087                       # IPC: Instructions Per Cycle
system.switch_cpus0.ipc_total                1.095087                       # IPC: Total IPC of All Threads
system.switch_cpus0.int_regfile_reads        65499155                       # number of integer regfile reads
system.switch_cpus0.int_regfile_writes       19675139                       # number of integer regfile writes
system.switch_cpus0.misc_regfile_reads       18975702                       # number of misc regfile reads
system.switch_cpus0.misc_regfile_writes          3196                       # number of misc regfile writes
system.switch_cpus1.dtb.inst_hits                   0                       # ITB inst hits
system.switch_cpus1.dtb.inst_misses                 0                       # ITB inst misses
system.switch_cpus1.dtb.read_hits                   0                       # DTB read hits
system.switch_cpus1.dtb.read_misses                 0                       # DTB read misses
system.switch_cpus1.dtb.write_hits                  0                       # DTB write hits
system.switch_cpus1.dtb.write_misses                0                       # DTB write misses
system.switch_cpus1.dtb.flush_tlb                   0                       # Number of times complete TLB was flushed
system.switch_cpus1.dtb.flush_tlb_mva               0                       # Number of times TLB was flushed by MVA
system.switch_cpus1.dtb.flush_tlb_mva_asid            0                       # Number of times TLB was flushed by MVA & ASID
system.switch_cpus1.dtb.flush_tlb_asid              0                       # Number of times TLB was flushed by ASID
system.switch_cpus1.dtb.flush_entries               0                       # Number of entries that have been flushed from TLB
system.switch_cpus1.dtb.align_faults                0                       # Number of TLB faults due to alignment restrictions
system.switch_cpus1.dtb.prefetch_faults             0                       # Number of TLB faults due to prefetch
system.switch_cpus1.dtb.domain_faults               0                       # Number of TLB faults due to domain restrictions
system.switch_cpus1.dtb.perms_faults                0                       # Number of TLB faults due to permissions restrictions
system.switch_cpus1.dtb.read_accesses               0                       # DTB read accesses
system.switch_cpus1.dtb.write_accesses              0                       # DTB write accesses
system.switch_cpus1.dtb.inst_accesses               0                       # ITB inst accesses
system.switch_cpus1.dtb.hits                        0                       # DTB hits
system.switch_cpus1.dtb.misses                      0                       # DTB misses
system.switch_cpus1.dtb.accesses                    0                       # DTB accesses
system.switch_cpus1.itb.inst_hits                   0                       # ITB inst hits
system.switch_cpus1.itb.inst_misses                 0                       # ITB inst misses
system.switch_cpus1.itb.read_hits                   0                       # DTB read hits
system.switch_cpus1.itb.read_misses                 0                       # DTB read misses
system.switch_cpus1.itb.write_hits                  0                       # DTB write hits
system.switch_cpus1.itb.write_misses                0                       # DTB write misses
system.switch_cpus1.itb.flush_tlb                   0                       # Number of times complete TLB was flushed
system.switch_cpus1.itb.flush_tlb_mva               0                       # Number of times TLB was flushed by MVA
system.switch_cpus1.itb.flush_tlb_mva_asid            0                       # Number of times TLB was flushed by MVA & ASID
system.switch_cpus1.itb.flush_tlb_asid              0                       # Number of times TLB was flushed by ASID
system.switch_cpus1.itb.flush_entries               0                       # Number of entries that have been flushed from TLB
system.switch_cpus1.itb.align_faults                0                       # Number of TLB faults due to alignment restrictions
system.switch_cpus1.itb.prefetch_faults             0                       # Number of TLB faults due to prefetch
system.switch_cpus1.itb.domain_faults               0                       # Number of TLB faults due to domain restrictions
system.switch_cpus1.itb.perms_faults                0                       # Number of TLB faults due to permissions restrictions
system.switch_cpus1.itb.read_accesses               0                       # DTB read accesses
system.switch_cpus1.itb.write_accesses              0                       # DTB write accesses
system.switch_cpus1.itb.inst_accesses               0                       # ITB inst accesses
system.switch_cpus1.itb.hits                        0                       # DTB hits
system.switch_cpus1.itb.misses                      0                       # DTB misses
system.switch_cpus1.itb.accesses                    0                       # DTB accesses
system.cpu1.workload.num_syscalls                   0                       # Number of system calls
system.switch_cpus1.numCycles                 9131695                       # number of cpu cycles simulated
system.switch_cpus1.numWorkItemsStarted             0                       # number of work items this cpu started
system.switch_cpus1.numWorkItemsCompleted            0                       # number of work items this cpu completed
system.switch_cpus1.BPredUnit.lookups         3243526                       # Number of BP lookups
system.switch_cpus1.BPredUnit.condPredicted      2645844                       # Number of conditional branches predicted
system.switch_cpus1.BPredUnit.condIncorrect       218215                       # Number of conditional branches incorrect
system.switch_cpus1.BPredUnit.BTBLookups      1374974                       # Number of BTB lookups
system.switch_cpus1.BPredUnit.BTBHits         1264257                       # Number of BTB hits
system.switch_cpus1.BPredUnit.BTBCorrect            0                       # Number of correct BTB predictions (this stat may not work properly.
system.switch_cpus1.BPredUnit.usedRAS          348771                       # Number of times the RAS was used to get a target.
system.switch_cpus1.BPredUnit.RASInCorrect         9842                       # Number of incorrect RAS predictions.
system.switch_cpus1.fetch.icacheStallCycles      3245197                       # Number of cycles fetch is stalled on an Icache miss
system.switch_cpus1.fetch.Insts              17828175                       # Number of instructions fetch has processed
system.switch_cpus1.fetch.Branches            3243526                       # Number of branches that fetch encountered
system.switch_cpus1.fetch.predictedBranches      1613028                       # Number of branches that fetch has predicted taken
system.switch_cpus1.fetch.Cycles              3956464                       # Number of cycles fetch has run and was not squashing or blocked
system.switch_cpus1.fetch.SquashCycles        1157547                       # Number of cycles fetch has spent squashing
system.switch_cpus1.fetch.BlockedCycles        665925                       # Number of cycles fetch has spent blocked
system.switch_cpus1.fetch.PendingTrapStallCycles           20                       # Number of stall cycles due to pending traps
system.switch_cpus1.fetch.CacheLines          1601368                       # Number of cache lines fetched
system.switch_cpus1.fetch.IcacheSquashes       105101                       # Number of outstanding Icache misses that were squashed
system.switch_cpus1.fetch.rateDist::samples      8804272                       # Number of instructions fetched each cycle (Total)
system.switch_cpus1.fetch.rateDist::mean     2.510159                       # Number of instructions fetched each cycle (Total)
system.switch_cpus1.fetch.rateDist::stdev     3.286979                       # Number of instructions fetched each cycle (Total)
system.switch_cpus1.fetch.rateDist::underflows            0      0.00%      0.00% # Number of instructions fetched each cycle (Total)
system.switch_cpus1.fetch.rateDist::0         4847808     55.06%     55.06% # Number of instructions fetched each cycle (Total)
system.switch_cpus1.fetch.rateDist::1          261144      2.97%     58.03% # Number of instructions fetched each cycle (Total)
system.switch_cpus1.fetch.rateDist::2          486738      5.53%     63.56% # Number of instructions fetched each cycle (Total)
system.switch_cpus1.fetch.rateDist::3          485957      5.52%     69.08% # Number of instructions fetched each cycle (Total)
system.switch_cpus1.fetch.rateDist::4          302186      3.43%     72.51% # Number of instructions fetched each cycle (Total)
system.switch_cpus1.fetch.rateDist::5          240112      2.73%     75.24% # Number of instructions fetched each cycle (Total)
system.switch_cpus1.fetch.rateDist::6          151076      1.72%     76.95% # Number of instructions fetched each cycle (Total)
system.switch_cpus1.fetch.rateDist::7          142138      1.61%     78.57% # Number of instructions fetched each cycle (Total)
system.switch_cpus1.fetch.rateDist::8         1887113     21.43%    100.00% # Number of instructions fetched each cycle (Total)
system.switch_cpus1.fetch.rateDist::overflows            0      0.00%    100.00% # Number of instructions fetched each cycle (Total)
system.switch_cpus1.fetch.rateDist::min_value            0                       # Number of instructions fetched each cycle (Total)
system.switch_cpus1.fetch.rateDist::max_value            8                       # Number of instructions fetched each cycle (Total)
system.switch_cpus1.fetch.rateDist::total      8804272                       # Number of instructions fetched each cycle (Total)
system.switch_cpus1.fetch.branchRate         0.355194                       # Number of branch fetches per cycle
system.switch_cpus1.fetch.rate               1.952340                       # Number of inst fetches per cycle
system.switch_cpus1.decode.IdleCycles         3386038                       # Number of cycles decode is idle
system.switch_cpus1.decode.BlockedCycles       659203                       # Number of cycles decode is blocked
system.switch_cpus1.decode.RunCycles          3799228                       # Number of cycles decode is running
system.switch_cpus1.decode.UnblockCycles        23350                       # Number of cycles decode is unblocking
system.switch_cpus1.decode.SquashCycles        936446                       # Number of cycles decode is squashing
system.switch_cpus1.decode.BranchResolved       547060                       # Number of times decode resolved a branch
system.switch_cpus1.decode.BranchMispred          233                       # Number of times decode detected a branch misprediction
system.switch_cpus1.decode.DecodedInsts      21384607                       # Number of instructions handled by decode
system.switch_cpus1.decode.SquashedInsts         1297                       # Number of squashed instructions handled by decode
system.switch_cpus1.rename.SquashCycles        936446                       # Number of cycles rename is squashing
system.switch_cpus1.rename.IdleCycles         3633258                       # Number of cycles rename is idle
system.switch_cpus1.rename.BlockCycles         105820                       # Number of cycles rename is blocking
system.switch_cpus1.rename.serializeStallCycles       216437                       # count of cycles rename stalled for serializing inst
system.switch_cpus1.rename.RunCycles          3570686                       # Number of cycles rename is running
system.switch_cpus1.rename.UnblockCycles       341619                       # Number of cycles rename is unblocking
system.switch_cpus1.rename.RenamedInsts      20610505                       # Number of instructions processed by rename
system.switch_cpus1.rename.ROBFullEvents            8                       # Number of times rename has blocked due to ROB full
system.switch_cpus1.rename.IQFullEvents        141156                       # Number of times rename has blocked due to IQ full
system.switch_cpus1.rename.LSQFullEvents       105616                       # Number of times rename has blocked due to LSQ full
system.switch_cpus1.rename.RenamedOperands     28938326                       # Number of destination operands rename has renamed
system.switch_cpus1.rename.RenameLookups     96151154                       # Number of register rename lookups that rename has made
system.switch_cpus1.rename.int_rename_lookups     96151154                       # Number of integer rename lookups
system.switch_cpus1.rename.CommittedMaps     17850699                       # Number of HB maps that are committed
system.switch_cpus1.rename.UndoneMaps        11087598                       # Number of HB maps that are undone due to squashing
system.switch_cpus1.rename.serializingInsts         3653                       # count of serializing insts renamed
system.switch_cpus1.rename.tempSerializingInsts         1760                       # count of temporary serializing insts renamed
system.switch_cpus1.rename.skidInsts           956514                       # count of insts added to the skid buffer
system.switch_cpus1.memDep0.insertedLoads      1910268                       # Number of loads inserted to the mem dependence unit.
system.switch_cpus1.memDep0.insertedStores       972699                       # Number of stores inserted to the mem dependence unit.
system.switch_cpus1.memDep0.conflictingLoads        12190                       # Number of conflicting loads.
system.switch_cpus1.memDep0.conflictingStores       445702                       # Number of conflicting stores.
system.switch_cpus1.iq.iqInstsAdded          19425728                       # Number of instructions added to the IQ (excludes non-spec)
system.switch_cpus1.iq.iqNonSpecInstsAdded         3520                       # Number of non-speculative instructions added to the IQ
system.switch_cpus1.iq.iqInstsIssued         15451190                       # Number of instructions issued
system.switch_cpus1.iq.iqSquashedInstsIssued        30610                       # Number of squashed instructions issued
system.switch_cpus1.iq.iqSquashedInstsExamined      6597329                       # Number of squashed instructions iterated over during squash; mainly for profiling
system.switch_cpus1.iq.iqSquashedOperandsExamined     20202782                       # Number of squashed operands that are examined and possibly removed from graph
system.switch_cpus1.iq.issued_per_cycle::samples      8804272                       # Number of insts issued each cycle
system.switch_cpus1.iq.issued_per_cycle::mean     1.754965                       # Number of insts issued each cycle
system.switch_cpus1.iq.issued_per_cycle::stdev     1.888911                       # Number of insts issued each cycle
system.switch_cpus1.iq.issued_per_cycle::underflows            0      0.00%      0.00% # Number of insts issued each cycle
system.switch_cpus1.iq.issued_per_cycle::0      3090316     35.10%     35.10% # Number of insts issued each cycle
system.switch_cpus1.iq.issued_per_cycle::1      1858432     21.11%     56.21% # Number of insts issued each cycle
system.switch_cpus1.iq.issued_per_cycle::2      1302940     14.80%     71.01% # Number of insts issued each cycle
system.switch_cpus1.iq.issued_per_cycle::3       813846      9.24%     80.25% # Number of insts issued each cycle
system.switch_cpus1.iq.issued_per_cycle::4       847770      9.63%     89.88% # Number of insts issued each cycle
system.switch_cpus1.iq.issued_per_cycle::5       417301      4.74%     94.62% # Number of insts issued each cycle
system.switch_cpus1.iq.issued_per_cycle::6       323583      3.68%     98.30% # Number of insts issued each cycle
system.switch_cpus1.iq.issued_per_cycle::7        74415      0.85%     99.14% # Number of insts issued each cycle
system.switch_cpus1.iq.issued_per_cycle::8        75669      0.86%    100.00% # Number of insts issued each cycle
system.switch_cpus1.iq.issued_per_cycle::overflows            0      0.00%    100.00% # Number of insts issued each cycle
system.switch_cpus1.iq.issued_per_cycle::min_value            0                       # Number of insts issued each cycle
system.switch_cpus1.iq.issued_per_cycle::max_value            8                       # Number of insts issued each cycle
system.switch_cpus1.iq.issued_per_cycle::total      8804272                       # Number of insts issued each cycle
system.switch_cpus1.iq.fu_full::No_OpClass            0      0.00%      0.00% # attempts to use FU when none available
system.switch_cpus1.iq.fu_full::IntAlu          96205     72.67%     72.67% # attempts to use FU when none available
system.switch_cpus1.iq.fu_full::IntMult             0      0.00%     72.67% # attempts to use FU when none available
system.switch_cpus1.iq.fu_full::IntDiv              0      0.00%     72.67% # attempts to use FU when none available
system.switch_cpus1.iq.fu_full::FloatAdd            0      0.00%     72.67% # attempts to use FU when none available
system.switch_cpus1.iq.fu_full::FloatCmp            0      0.00%     72.67% # attempts to use FU when none available
system.switch_cpus1.iq.fu_full::FloatCvt            0      0.00%     72.67% # attempts to use FU when none available
system.switch_cpus1.iq.fu_full::FloatMult            0      0.00%     72.67% # attempts to use FU when none available
system.switch_cpus1.iq.fu_full::FloatDiv            0      0.00%     72.67% # attempts to use FU when none available
system.switch_cpus1.iq.fu_full::FloatSqrt            0      0.00%     72.67% # attempts to use FU when none available
system.switch_cpus1.iq.fu_full::SimdAdd             0      0.00%     72.67% # attempts to use FU when none available
system.switch_cpus1.iq.fu_full::SimdAddAcc            0      0.00%     72.67% # attempts to use FU when none available
system.switch_cpus1.iq.fu_full::SimdAlu             0      0.00%     72.67% # attempts to use FU when none available
system.switch_cpus1.iq.fu_full::SimdCmp             0      0.00%     72.67% # attempts to use FU when none available
system.switch_cpus1.iq.fu_full::SimdCvt             0      0.00%     72.67% # attempts to use FU when none available
system.switch_cpus1.iq.fu_full::SimdMisc            0      0.00%     72.67% # attempts to use FU when none available
system.switch_cpus1.iq.fu_full::SimdMult            0      0.00%     72.67% # attempts to use FU when none available
system.switch_cpus1.iq.fu_full::SimdMultAcc            0      0.00%     72.67% # attempts to use FU when none available
system.switch_cpus1.iq.fu_full::SimdShift            0      0.00%     72.67% # attempts to use FU when none available
system.switch_cpus1.iq.fu_full::SimdShiftAcc            0      0.00%     72.67% # attempts to use FU when none available
system.switch_cpus1.iq.fu_full::SimdSqrt            0      0.00%     72.67% # attempts to use FU when none available
system.switch_cpus1.iq.fu_full::SimdFloatAdd            0      0.00%     72.67% # attempts to use FU when none available
system.switch_cpus1.iq.fu_full::SimdFloatAlu            0      0.00%     72.67% # attempts to use FU when none available
system.switch_cpus1.iq.fu_full::SimdFloatCmp            0      0.00%     72.67% # attempts to use FU when none available
system.switch_cpus1.iq.fu_full::SimdFloatCvt            0      0.00%     72.67% # attempts to use FU when none available
system.switch_cpus1.iq.fu_full::SimdFloatDiv            0      0.00%     72.67% # attempts to use FU when none available
system.switch_cpus1.iq.fu_full::SimdFloatMisc            0      0.00%     72.67% # attempts to use FU when none available
system.switch_cpus1.iq.fu_full::SimdFloatMult            0      0.00%     72.67% # attempts to use FU when none available
system.switch_cpus1.iq.fu_full::SimdFloatMultAcc            0      0.00%     72.67% # attempts to use FU when none available
system.switch_cpus1.iq.fu_full::SimdFloatSqrt            0      0.00%     72.67% # attempts to use FU when none available
system.switch_cpus1.iq.fu_full::MemRead         18528     13.99%     86.66% # attempts to use FU when none available
system.switch_cpus1.iq.fu_full::MemWrite        17658     13.34%    100.00% # attempts to use FU when none available
system.switch_cpus1.iq.fu_full::IprAccess            0      0.00%    100.00% # attempts to use FU when none available
system.switch_cpus1.iq.fu_full::InstPrefetch            0      0.00%    100.00% # attempts to use FU when none available
system.switch_cpus1.iq.FU_type_0::No_OpClass            0      0.00%      0.00% # Type of FU issued
system.switch_cpus1.iq.FU_type_0::IntAlu     12927721     83.67%     83.67% # Type of FU issued
system.switch_cpus1.iq.FU_type_0::IntMult       207458      1.34%     85.01% # Type of FU issued
system.switch_cpus1.iq.FU_type_0::IntDiv            0      0.00%     85.01% # Type of FU issued
system.switch_cpus1.iq.FU_type_0::FloatAdd            0      0.00%     85.01% # Type of FU issued
system.switch_cpus1.iq.FU_type_0::FloatCmp            0      0.00%     85.01% # Type of FU issued
system.switch_cpus1.iq.FU_type_0::FloatCvt            0      0.00%     85.01% # Type of FU issued
system.switch_cpus1.iq.FU_type_0::FloatMult            0      0.00%     85.01% # Type of FU issued
system.switch_cpus1.iq.FU_type_0::FloatDiv            0      0.00%     85.01% # Type of FU issued
system.switch_cpus1.iq.FU_type_0::FloatSqrt            0      0.00%     85.01% # Type of FU issued
system.switch_cpus1.iq.FU_type_0::SimdAdd            0      0.00%     85.01% # Type of FU issued
system.switch_cpus1.iq.FU_type_0::SimdAddAcc            0      0.00%     85.01% # Type of FU issued
system.switch_cpus1.iq.FU_type_0::SimdAlu            0      0.00%     85.01% # Type of FU issued
system.switch_cpus1.iq.FU_type_0::SimdCmp            0      0.00%     85.01% # Type of FU issued
system.switch_cpus1.iq.FU_type_0::SimdCvt            0      0.00%     85.01% # Type of FU issued
system.switch_cpus1.iq.FU_type_0::SimdMisc            0      0.00%     85.01% # Type of FU issued
system.switch_cpus1.iq.FU_type_0::SimdMult            0      0.00%     85.01% # Type of FU issued
system.switch_cpus1.iq.FU_type_0::SimdMultAcc            0      0.00%     85.01% # Type of FU issued
system.switch_cpus1.iq.FU_type_0::SimdShift            0      0.00%     85.01% # Type of FU issued
system.switch_cpus1.iq.FU_type_0::SimdShiftAcc            0      0.00%     85.01% # Type of FU issued
system.switch_cpus1.iq.FU_type_0::SimdSqrt            0      0.00%     85.01% # Type of FU issued
system.switch_cpus1.iq.FU_type_0::SimdFloatAdd            0      0.00%     85.01% # Type of FU issued
system.switch_cpus1.iq.FU_type_0::SimdFloatAlu            0      0.00%     85.01% # Type of FU issued
system.switch_cpus1.iq.FU_type_0::SimdFloatCmp            0      0.00%     85.01% # Type of FU issued
system.switch_cpus1.iq.FU_type_0::SimdFloatCvt            0      0.00%     85.01% # Type of FU issued
system.switch_cpus1.iq.FU_type_0::SimdFloatDiv            0      0.00%     85.01% # Type of FU issued
system.switch_cpus1.iq.FU_type_0::SimdFloatMisc         1758      0.01%     85.02% # Type of FU issued
system.switch_cpus1.iq.FU_type_0::SimdFloatMult            0      0.00%     85.02% # Type of FU issued
system.switch_cpus1.iq.FU_type_0::SimdFloatMultAcc            0      0.00%     85.02% # Type of FU issued
system.switch_cpus1.iq.FU_type_0::SimdFloatSqrt            0      0.00%     85.02% # Type of FU issued
system.switch_cpus1.iq.FU_type_0::MemRead      1496684      9.69%     94.71% # Type of FU issued
system.switch_cpus1.iq.FU_type_0::MemWrite       817569      5.29%    100.00% # Type of FU issued
system.switch_cpus1.iq.FU_type_0::IprAccess            0      0.00%    100.00% # Type of FU issued
system.switch_cpus1.iq.FU_type_0::InstPrefetch            0      0.00%    100.00% # Type of FU issued
system.switch_cpus1.iq.FU_type_0::total      15451190                       # Type of FU issued
system.switch_cpus1.iq.rate                  1.692040                       # Inst issue rate
system.switch_cpus1.iq.fu_busy_cnt             132391                       # FU busy when requested
system.switch_cpus1.iq.fu_busy_rate          0.008568                       # FU busy rate (busy events/executed inst)
system.switch_cpus1.iq.int_inst_queue_reads     39869649                       # Number of integer instruction queue reads
system.switch_cpus1.iq.int_inst_queue_writes     26026613                       # Number of integer instruction queue writes
system.switch_cpus1.iq.int_inst_queue_wakeup_accesses     15098481                       # Number of integer instruction queue wakeup accesses
system.switch_cpus1.iq.fp_inst_queue_reads            0                       # Number of floating instruction queue reads
system.switch_cpus1.iq.fp_inst_queue_writes            0                       # Number of floating instruction queue writes
system.switch_cpus1.iq.fp_inst_queue_wakeup_accesses            0                       # Number of floating instruction queue wakeup accesses
system.switch_cpus1.iq.int_alu_accesses      15583581                       # Number of integer alu accesses
system.switch_cpus1.iq.fp_alu_accesses              0                       # Number of floating point alu accesses
system.switch_cpus1.iew.lsq.thread0.forwLoads        48393                       # Number of loads that had data forwarded from stores
system.switch_cpus1.iew.lsq.thread0.invAddrLoads            0                       # Number of loads ignored due to an invalid address
system.switch_cpus1.iew.lsq.thread0.squashedLoads       746082                       # Number of loads squashed
system.switch_cpus1.iew.lsq.thread0.ignoredResponses          240                       # Number of memory responses ignored because the instruction is squashed
system.switch_cpus1.iew.lsq.thread0.memOrderViolation           36                       # Number of memory ordering violations
system.switch_cpus1.iew.lsq.thread0.squashedStores       235118                       # Number of stores squashed
system.switch_cpus1.iew.lsq.thread0.invAddrSwpfs            0                       # Number of software prefetches ignored due to an invalid address
system.switch_cpus1.iew.lsq.thread0.blockedLoads            0                       # Number of blocked loads due to partial load-store forwarding
system.switch_cpus1.iew.lsq.thread0.rescheduledLoads            0                       # Number of loads that were rescheduled
system.switch_cpus1.iew.lsq.thread0.cacheBlocked            0                       # Number of times an access to memory failed due to the cache being blocked
system.switch_cpus1.iew.iewIdleCycles               0                       # Number of cycles IEW is idle
system.switch_cpus1.iew.iewSquashCycles        936446                       # Number of cycles IEW is squashing
system.switch_cpus1.iew.iewBlockCycles          55332                       # Number of cycles IEW is blocking
system.switch_cpus1.iew.iewUnblockCycles         9319                       # Number of cycles IEW is unblocking
system.switch_cpus1.iew.iewDispatchedInsts     19429251                       # Number of instructions dispatched to IQ
system.switch_cpus1.iew.iewDispSquashedInsts        38957                       # Number of squashed instructions skipped by dispatch
system.switch_cpus1.iew.iewDispLoadInsts      1910268                       # Number of dispatched load instructions
system.switch_cpus1.iew.iewDispStoreInsts       972699                       # Number of dispatched store instructions
system.switch_cpus1.iew.iewDispNonSpecInsts         1760                       # Number of dispatched non-speculative instructions
system.switch_cpus1.iew.iewIQFullEvents          7216                       # Number of times the IQ has become full, causing a stall
system.switch_cpus1.iew.iewLSQFullEvents            0                       # Number of times the LSQ has become full, causing a stall
system.switch_cpus1.iew.memOrderViolationEvents           36                       # Number of memory order violations
system.switch_cpus1.iew.predictedTakenIncorrect       135593                       # Number of branches that were predicted taken incorrectly
system.switch_cpus1.iew.predictedNotTakenIncorrect       121955                       # Number of branches that were predicted not taken incorrectly
system.switch_cpus1.iew.branchMispredicts       257548                       # Number of branch mispredicts detected at execute
system.switch_cpus1.iew.iewExecutedInsts     15247342                       # Number of executed instructions
system.switch_cpus1.iew.iewExecLoadInsts      1428218                       # Number of load instructions executed
system.switch_cpus1.iew.iewExecSquashedInsts       203844                       # Number of squashed instructions skipped in execute
system.switch_cpus1.iew.exec_swp                    0                       # number of swp insts executed
system.switch_cpus1.iew.exec_nop                    3                       # number of nop insts executed
system.switch_cpus1.iew.exec_refs             2228286                       # number of memory reference insts executed
system.switch_cpus1.iew.exec_branches         2160672                       # Number of branches executed
system.switch_cpus1.iew.exec_stores            800068                       # Number of stores executed
system.switch_cpus1.iew.exec_rate            1.669717                       # Inst execution rate
system.switch_cpus1.iew.wb_sent              15103460                       # cumulative count of insts sent to commit
system.switch_cpus1.iew.wb_count             15098481                       # cumulative count of insts written-back
system.switch_cpus1.iew.wb_producers          9622741                       # num instructions producing a value
system.switch_cpus1.iew.wb_consumers         27609867                       # num instructions consuming a value
system.switch_cpus1.iew.wb_penalized                0                       # number of instrctions required to write to 'other' IQ
system.switch_cpus1.iew.wb_rate              1.653415                       # insts written-back per cycle
system.switch_cpus1.iew.wb_fanout            0.348525                       # average fanout of values written-back
system.switch_cpus1.iew.wb_penalized_rate            0                       # fraction of instructions written-back that wrote to 'other' IQ
system.switch_cpus1.commit.commitCommittedInsts     10397275                       # The number of committed instructions
system.switch_cpus1.commit.commitCommittedOps     12802647                       # The number of committed instructions
system.switch_cpus1.commit.commitSquashedInsts      6626647                       # The number of squashed insts skipped by commit
system.switch_cpus1.commit.commitNonSpecStalls         3520                       # The number of times commit has been forced to stall to communicate backwards
system.switch_cpus1.commit.branchMispredicts       220635                       # The number of times a branch was mispredicted
system.switch_cpus1.commit.committed_per_cycle::samples      7867826                       # Number of insts commited each cycle
[...]
system.cpu3.icache.ReadReq_avg_miss_latency::total 252206.647059                       # average ReadReq miss latency
system.cpu3.icache.demand_avg_miss_latency::switch_cpus3.inst 252206.647059                       # average overall miss latency
system.cpu3.icache.demand_avg_miss_latency::total 252206.647059                       # average overall miss latency
system.cpu3.icache.overall_avg_miss_latency::switch_cpus3.inst 252206.647059                       # average overall miss latency
system.cpu3.icache.overall_avg_miss_latency::total 252206.647059                       # average overall miss latency
system.cpu3.icache.blocked_cycles::no_mshrs            0                       # number of cycles access was blocked
system.cpu3.icache.blocked_cycles::no_targets            0                       # number of cycles access was blocked
system.cpu3.icache.blocked::no_mshrs                0                       # number of cycles access was blocked
system.cpu3.icache.blocked::no_targets              0                       # number of cycles access was blocked
system.cpu3.icache.avg_blocked_cycles::no_mshrs          nan                       # average number of cycles each access was blocked
system.cpu3.icache.avg_blocked_cycles::no_targets          nan                       # average number of cycles each access was blocked
system.cpu3.icache.fast_writes                      0                       # number of fast writes performed
system.cpu3.icache.cache_copies                     0                       # number of cache copies performed
system.cpu3.icache.ReadReq_mshr_hits::switch_cpus3.inst            4                       # number of ReadReq MSHR hits
system.cpu3.icache.ReadReq_mshr_hits::total            4                       # number of ReadReq MSHR hits
system.cpu3.icache.demand_mshr_hits::switch_cpus3.inst            4                       # number of demand (read+write) MSHR hits
system.cpu3.icache.demand_mshr_hits::total            4                       # number of demand (read+write) MSHR hits
system.cpu3.icache.overall_mshr_hits::switch_cpus3.inst            4                       # number of overall MSHR hits
system.cpu3.icache.overall_mshr_hits::total            4                       # number of overall MSHR hits
system.cpu3.icache.ReadReq_mshr_misses::switch_cpus3.inst           13                       # number of ReadReq MSHR misses
system.cpu3.icache.ReadReq_mshr_misses::total           13                       # number of ReadReq MSHR misses
system.cpu3.icache.demand_mshr_misses::switch_cpus3.inst           13                       # number of demand (read+write) MSHR misses
system.cpu3.icache.demand_mshr_misses::total           13                       # number of demand (read+write) MSHR misses
system.cpu3.icache.overall_mshr_misses::switch_cpus3.inst           13                       # number of overall MSHR misses
system.cpu3.icache.overall_mshr_misses::total           13                       # number of overall MSHR misses
system.cpu3.icache.ReadReq_mshr_miss_latency::switch_cpus3.inst      3193990                       # number of ReadReq MSHR miss cycles
system.cpu3.icache.ReadReq_mshr_miss_latency::total      3193990                       # number of ReadReq MSHR miss cycles
system.cpu3.icache.demand_mshr_miss_latency::switch_cpus3.inst      3193990                       # number of demand (read+write) MSHR miss cycles
system.cpu3.icache.demand_mshr_miss_latency::total      3193990                       # number of demand (read+write) MSHR miss cycles
system.cpu3.icache.overall_mshr_miss_latency::switch_cpus3.inst      3193990                       # number of overall MSHR miss cycles
system.cpu3.icache.overall_mshr_miss_latency::total      3193990                       # number of overall MSHR miss cycles
system.cpu3.icache.ReadReq_mshr_miss_rate::switch_cpus3.inst     0.000008                       # mshr miss rate for ReadReq accesses
system.cpu3.icache.ReadReq_mshr_miss_rate::total     0.000008                       # mshr miss rate for ReadReq accesses
system.cpu3.icache.demand_mshr_miss_rate::switch_cpus3.inst     0.000008                       # mshr miss rate for demand accesses
system.cpu3.icache.demand_mshr_miss_rate::total     0.000008                       # mshr miss rate for demand accesses
system.cpu3.icache.overall_mshr_miss_rate::switch_cpus3.inst     0.000008                       # mshr miss rate for overall accesses
system.cpu3.icache.overall_mshr_miss_rate::total     0.000008                       # mshr miss rate for overall accesses
system.cpu3.icache.ReadReq_avg_mshr_miss_latency::switch_cpus3.inst 245691.538462                       # average ReadReq mshr miss latency
system.cpu3.icache.ReadReq_avg_mshr_miss_latency::total 245691.538462                       # average ReadReq mshr miss latency
system.cpu3.icache.demand_avg_mshr_miss_latency::switch_cpus3.inst 245691.538462                       # average overall mshr miss latency
system.cpu3.icache.demand_avg_mshr_miss_latency::total 245691.538462                       # average overall mshr miss latency
system.cpu3.icache.overall_avg_mshr_miss_latency::switch_cpus3.inst 245691.538462                       # average overall mshr miss latency
system.cpu3.icache.overall_avg_mshr_miss_latency::total 245691.538462                       # average overall mshr miss latency
system.cpu3.icache.no_allocate_misses               0                       # Number of misses that were no-allocate
system.cpu3.dcache.replacements                  5193                       # number of replacements
system.cpu3.dcache.tagsinuse                      256                       # Cycle average of tags in use
system.cpu3.dcache.total_refs               158267307                       # Total number of references to valid blocks.
system.cpu3.dcache.sampled_refs                  5449                       # Sample count of references to valid blocks.
system.cpu3.dcache.avg_refs              29045.202239                       # Average number of references to valid blocks.
system.cpu3.dcache.warmup_cycle                     0                       # Cycle when the warmup percentage was hit.
system.cpu3.dcache.occ_blocks::switch_cpus3.data   226.347380                       # Average occupied blocks per requestor
system.cpu3.dcache.occ_blocks::cpu3.data    29.652620                       # Average occupied blocks per requestor
system.cpu3.dcache.occ_percent::switch_cpus3.data     0.884169                       # Average percentage of cache occupancy
system.cpu3.dcache.occ_percent::cpu3.data     0.115831                       # Average percentage of cache occupancy
system.cpu3.dcache.occ_percent::total               1                       # Average percentage of cache occupancy
system.cpu3.dcache.ReadReq_hits::switch_cpus3.data      1063569                       # number of ReadReq hits
system.cpu3.dcache.ReadReq_hits::total        1063569                       # number of ReadReq hits
system.cpu3.dcache.WriteReq_hits::switch_cpus3.data       731120                       # number of WriteReq hits
system.cpu3.dcache.WriteReq_hits::total        731120                       # number of WriteReq hits
system.cpu3.dcache.LoadLockedReq_hits::switch_cpus3.data         1761                       # number of LoadLockedReq hits
system.cpu3.dcache.LoadLockedReq_hits::total         1761                       # number of LoadLockedReq hits
system.cpu3.dcache.StoreCondReq_hits::switch_cpus3.data         1696                       # number of StoreCondReq hits
system.cpu3.dcache.StoreCondReq_hits::total         1696                       # number of StoreCondReq hits
system.cpu3.dcache.demand_hits::switch_cpus3.data      1794689                       # number of demand (read+write) hits
system.cpu3.dcache.demand_hits::total         1794689                       # number of demand (read+write) hits
system.cpu3.dcache.overall_hits::switch_cpus3.data      1794689                       # number of overall hits
system.cpu3.dcache.overall_hits::total        1794689                       # number of overall hits
system.cpu3.dcache.ReadReq_misses::switch_cpus3.data        13116                       # number of ReadReq misses
system.cpu3.dcache.ReadReq_misses::total        13116                       # number of ReadReq misses
system.cpu3.dcache.WriteReq_misses::switch_cpus3.data          404                       # number of WriteReq misses
system.cpu3.dcache.WriteReq_misses::total          404                       # number of WriteReq misses
system.cpu3.dcache.demand_misses::switch_cpus3.data        13520                       # number of demand (read+write) misses
system.cpu3.dcache.demand_misses::total         13520                       # number of demand (read+write) misses
system.cpu3.dcache.overall_misses::switch_cpus3.data        13520                       # number of overall misses
system.cpu3.dcache.overall_misses::total        13520                       # number of overall misses
system.cpu3.dcache.ReadReq_miss_latency::switch_cpus3.data   1077806729                       # number of ReadReq miss cycles
system.cpu3.dcache.ReadReq_miss_latency::total   1077806729                       # number of ReadReq miss cycles
system.cpu3.dcache.WriteReq_miss_latency::switch_cpus3.data     60444609                       # number of WriteReq miss cycles
system.cpu3.dcache.WriteReq_miss_latency::total     60444609                       # number of WriteReq miss cycles
system.cpu3.dcache.demand_miss_latency::switch_cpus3.data   1138251338                       # number of demand (read+write) miss cycles
system.cpu3.dcache.demand_miss_latency::total   1138251338                       # number of demand (read+write) miss cycles
system.cpu3.dcache.overall_miss_latency::switch_cpus3.data   1138251338                       # number of overall miss cycles
system.cpu3.dcache.overall_miss_latency::total   1138251338                       # number of overall miss cycles
system.cpu3.dcache.ReadReq_accesses::switch_cpus3.data      1076685                       # number of ReadReq accesses(hits+misses)
system.cpu3.dcache.ReadReq_accesses::total      1076685                       # number of ReadReq accesses(hits+misses)
system.cpu3.dcache.WriteReq_accesses::switch_cpus3.data       731524                       # number of WriteReq accesses(hits+misses)
system.cpu3.dcache.WriteReq_accesses::total       731524                       # number of WriteReq accesses(hits+misses)
system.cpu3.dcache.LoadLockedReq_accesses::switch_cpus3.data         1761                       # number of LoadLockedReq accesses(hits+misses)
system.cpu3.dcache.LoadLockedReq_accesses::total         1761                       # number of LoadLockedReq accesses(hits+misses)
system.cpu3.dcache.StoreCondReq_accesses::switch_cpus3.data         1696                       # number of StoreCondReq accesses(hits+misses)
system.cpu3.dcache.StoreCondReq_accesses::total         1696                       # number of StoreCondReq accesses(hits+misses)
system.cpu3.dcache.demand_accesses::switch_cpus3.data      1808209                       # number of demand (read+write) accesses
system.cpu3.dcache.demand_accesses::total      1808209                       # number of demand (read+write) accesses
system.cpu3.dcache.overall_accesses::switch_cpus3.data      1808209                       # number of overall (read+write) accesses
system.cpu3.dcache.overall_accesses::total      1808209                       # number of overall (read+write) accesses
system.cpu3.dcache.ReadReq_miss_rate::switch_cpus3.data     0.012182                       # miss rate for ReadReq accesses
system.cpu3.dcache.ReadReq_miss_rate::total     0.012182                       # miss rate for ReadReq accesses
system.cpu3.dcache.WriteReq_miss_rate::switch_cpus3.data     0.000552                       # miss rate for WriteReq accesses
system.cpu3.dcache.WriteReq_miss_rate::total     0.000552                       # miss rate for WriteReq accesses
system.cpu3.dcache.demand_miss_rate::switch_cpus3.data     0.007477                       # miss rate for demand accesses
system.cpu3.dcache.demand_miss_rate::total     0.007477                       # miss rate for demand accesses
system.cpu3.dcache.overall_miss_rate::switch_cpus3.data     0.007477                       # miss rate for overall accesses
system.cpu3.dcache.overall_miss_rate::total     0.007477                       # miss rate for overall accesses
system.cpu3.dcache.ReadReq_avg_miss_latency::switch_cpus3.data 82174.956465                       # average ReadReq miss latency
system.cpu3.dcache.ReadReq_avg_miss_latency::total 82174.956465                       # average ReadReq miss latency
system.cpu3.dcache.WriteReq_avg_miss_latency::switch_cpus3.data 149615.368812                       # average WriteReq miss latency
system.cpu3.dcache.WriteReq_avg_miss_latency::total 149615.368812                       # average WriteReq miss latency
system.cpu3.dcache.demand_avg_miss_latency::switch_cpus3.data 84190.187722                       # average overall miss latency
system.cpu3.dcache.demand_avg_miss_latency::total 84190.187722                       # average overall miss latency
system.cpu3.dcache.overall_avg_miss_latency::switch_cpus3.data 84190.187722                       # average overall miss latency
system.cpu3.dcache.overall_avg_miss_latency::total 84190.187722                       # average overall miss latency
system.cpu3.dcache.blocked_cycles::no_mshrs            0                       # number of cycles access was blocked
system.cpu3.dcache.blocked_cycles::no_targets       441078                       # number of cycles access was blocked
system.cpu3.dcache.blocked::no_mshrs                0                       # number of cycles access was blocked
system.cpu3.dcache.blocked::no_targets              4                       # number of cycles access was blocked
system.cpu3.dcache.avg_blocked_cycles::no_mshrs          nan                       # average number of cycles each access was blocked
system.cpu3.dcache.avg_blocked_cycles::no_targets 110269.500000                       # average number of cycles each access was blocked
system.cpu3.dcache.fast_writes                      0                       # number of fast writes performed
system.cpu3.dcache.cache_copies                     0                       # number of cache copies performed
system.cpu3.dcache.writebacks::writebacks         1931                       # number of writebacks
system.cpu3.dcache.writebacks::total             1931                       # number of writebacks
system.cpu3.dcache.ReadReq_mshr_hits::switch_cpus3.data         7924                       # number of ReadReq MSHR hits
system.cpu3.dcache.ReadReq_mshr_hits::total         7924                       # number of ReadReq MSHR hits
system.cpu3.dcache.WriteReq_mshr_hits::switch_cpus3.data          403                       # number of WriteReq MSHR hits
system.cpu3.dcache.WriteReq_mshr_hits::total          403                       # number of WriteReq MSHR hits
system.cpu3.dcache.demand_mshr_hits::switch_cpus3.data         8327                       # number of demand (read+write) MSHR hits
system.cpu3.dcache.demand_mshr_hits::total         8327                       # number of demand (read+write) MSHR hits
system.cpu3.dcache.overall_mshr_hits::switch_cpus3.data         8327                       # number of overall MSHR hits
system.cpu3.dcache.overall_mshr_hits::total         8327                       # number of overall MSHR hits
system.cpu3.dcache.ReadReq_mshr_misses::switch_cpus3.data         5192                       # number of ReadReq MSHR misses
system.cpu3.dcache.ReadReq_mshr_misses::total         5192                       # number of ReadReq MSHR misses
system.cpu3.dcache.WriteReq_mshr_misses::switch_cpus3.data            1                       # number of WriteReq MSHR misses
system.cpu3.dcache.WriteReq_mshr_misses::total            1                       # number of WriteReq MSHR misses
system.cpu3.dcache.demand_mshr_misses::switch_cpus3.data         5193                       # number of demand (read+write) MSHR misses
system.cpu3.dcache.demand_mshr_misses::total         5193                       # number of demand (read+write) MSHR misses
system.cpu3.dcache.overall_mshr_misses::switch_cpus3.data         5193                       # number of overall MSHR misses
system.cpu3.dcache.overall_mshr_misses::total         5193                       # number of overall MSHR misses
system.cpu3.dcache.ReadReq_mshr_miss_latency::switch_cpus3.data    291150603                       # number of ReadReq MSHR miss cycles
system.cpu3.dcache.ReadReq_mshr_miss_latency::total    291150603                       # number of ReadReq MSHR miss cycles
system.cpu3.dcache.WriteReq_mshr_miss_latency::switch_cpus3.data        44851                       # number of WriteReq MSHR miss cycles
system.cpu3.dcache.WriteReq_mshr_miss_latency::total        44851                       # number of WriteReq MSHR miss cycles
system.cpu3.dcache.demand_mshr_miss_latency::switch_cpus3.data    291195454                       # number of demand (read+write) MSHR miss cycles
system.cpu3.dcache.demand_mshr_miss_latency::total    291195454                       # number of demand (read+write) MSHR miss cycles
system.cpu3.dcache.overall_mshr_miss_latency::switch_cpus3.data    291195454                       # number of overall MSHR miss cycles
system.cpu3.dcache.overall_mshr_miss_latency::total    291195454                       # number of overall MSHR miss cycles
system.cpu3.dcache.ReadReq_mshr_miss_rate::switch_cpus3.data     0.004822                       # mshr miss rate for ReadReq accesses
system.cpu3.dcache.ReadReq_mshr_miss_rate::total     0.004822                       # mshr miss rate for ReadReq accesses
system.cpu3.dcache.WriteReq_mshr_miss_rate::switch_cpus3.data     0.000001                       # mshr miss rate for WriteReq accesses
system.cpu3.dcache.WriteReq_mshr_miss_rate::total     0.000001                       # mshr miss rate for WriteReq accesses
system.cpu3.dcache.demand_mshr_miss_rate::switch_cpus3.data     0.002872                       # mshr miss rate for demand accesses
system.cpu3.dcache.demand_mshr_miss_rate::total     0.002872                       # mshr miss rate for demand accesses
system.cpu3.dcache.overall_mshr_miss_rate::switch_cpus3.data     0.002872                       # mshr miss rate for overall accesses
system.cpu3.dcache.overall_mshr_miss_rate::total     0.002872                       # mshr miss rate for overall accesses
system.cpu3.dcache.ReadReq_avg_mshr_miss_latency::switch_cpus3.data 56076.772535                       # average ReadReq mshr miss latency
system.cpu3.dcache.ReadReq_avg_mshr_miss_latency::total 56076.772535                       # average ReadReq mshr miss latency
system.cpu3.dcache.WriteReq_avg_mshr_miss_latency::switch_cpus3.data        44851                       # average WriteReq mshr miss latency
system.cpu3.dcache.WriteReq_avg_mshr_miss_latency::total        44851                       # average WriteReq mshr miss latency
system.cpu3.dcache.demand_avg_mshr_miss_latency::switch_cpus3.data 56074.610822                       # average overall mshr miss latency
system.cpu3.dcache.demand_avg_mshr_miss_latency::total 56074.610822                       # average overall mshr miss latency
system.cpu3.dcache.overall_avg_mshr_miss_latency::switch_cpus3.data 56074.610822                       # average overall mshr miss latency
system.cpu3.dcache.overall_avg_mshr_miss_latency::total 56074.610822                       # average overall mshr miss latency
system.cpu3.dcache.no_allocate_misses               0                       # Number of misses that were no-allocate

---------- End Simulation Statistics   ----------
