
---------- Begin Simulation Statistics ----------
sim_seconds                                  0.001063                       # Number of seconds simulated
sim_ticks                                  1062701982                       # Number of ticks simulated
final_tick                               400559416380                       # Number of ticks from beginning of simulation (restored from checkpoints and never reset)
sim_freq                                 1000000000000                       # Frequency of simulated ticks
host_inst_rate                                 411924                       # Simulator instruction rate (inst/s)
host_op_rate                                   531199                       # Simulator op (including micro ops) rate (op/s)
host_tick_rate                                  36781                       # Simulator tick rate (ticks/s)
host_mem_usage                               67608200                       # Number of bytes of host memory used
host_seconds                                 28892.68                       # Real time elapsed on the host
sim_insts                                 11901577388                       # Number of instructions simulated
sim_ops                                   15347772715                       # Number of ops (including micro ops) simulated
system.physmem.bytes_read::switch_cpus00.inst         3712                       # Number of bytes read from this memory
system.physmem.bytes_read::switch_cpus00.data        16512                       # Number of bytes read from this memory
system.physmem.bytes_read::switch_cpus01.inst         3840                       # Number of bytes read from this memory
system.physmem.bytes_read::switch_cpus01.data        17152                       # Number of bytes read from this memory
system.physmem.bytes_read::switch_cpus02.inst         1792                       # Number of bytes read from this memory
system.physmem.bytes_read::switch_cpus02.data        32000                       # Number of bytes read from this memory
system.physmem.bytes_read::switch_cpus03.inst         3840                       # Number of bytes read from this memory
system.physmem.bytes_read::switch_cpus03.data        17024                       # Number of bytes read from this memory
system.physmem.bytes_read::switch_cpus04.inst         1792                       # Number of bytes read from this memory
system.physmem.bytes_read::switch_cpus04.data        31488                       # Number of bytes read from this memory
system.physmem.bytes_read::switch_cpus05.inst         1792                       # Number of bytes read from this memory
system.physmem.bytes_read::switch_cpus05.data        32768                       # Number of bytes read from this memory
system.physmem.bytes_read::switch_cpus06.inst         1920                       # Number of bytes read from this memory
system.physmem.bytes_read::switch_cpus06.data        26880                       # Number of bytes read from this memory
system.physmem.bytes_read::switch_cpus07.inst         3328                       # Number of bytes read from this memory
system.physmem.bytes_read::switch_cpus07.data        14720                       # Number of bytes read from this memory
system.physmem.bytes_read::switch_cpus08.inst         1920                       # Number of bytes read from this memory
system.physmem.bytes_read::switch_cpus08.data        26368                       # Number of bytes read from this memory
system.physmem.bytes_read::switch_cpus09.inst         3328                       # Number of bytes read from this memory
system.physmem.bytes_read::switch_cpus09.data        14720                       # Number of bytes read from this memory
system.physmem.bytes_read::switch_cpus10.inst         3712                       # Number of bytes read from this memory
system.physmem.bytes_read::switch_cpus10.data        16256                       # Number of bytes read from this memory
system.physmem.bytes_read::switch_cpus11.inst         3200                       # Number of bytes read from this memory
system.physmem.bytes_read::switch_cpus11.data        14592                       # Number of bytes read from this memory
system.physmem.bytes_read::switch_cpus12.inst         1792                       # Number of bytes read from this memory
system.physmem.bytes_read::switch_cpus12.data        20608                       # Number of bytes read from this memory
system.physmem.bytes_read::switch_cpus13.inst         1792                       # Number of bytes read from this memory
system.physmem.bytes_read::switch_cpus13.data        32384                       # Number of bytes read from this memory
system.physmem.bytes_read::switch_cpus14.inst         3712                       # Number of bytes read from this memory
system.physmem.bytes_read::switch_cpus14.data        17024                       # Number of bytes read from this memory
system.physmem.bytes_read::switch_cpus15.inst         3072                       # Number of bytes read from this memory
system.physmem.bytes_read::switch_cpus15.data        74240                       # Number of bytes read from this memory
system.physmem.bytes_read::total               449280                       # Number of bytes read from this memory
system.physmem.bytes_inst_read::switch_cpus00.inst         3712                       # Number of instructions bytes read from this memory
system.physmem.bytes_inst_read::switch_cpus01.inst         3840                       # Number of instructions bytes read from this memory
system.physmem.bytes_inst_read::switch_cpus02.inst         1792                       # Number of instructions bytes read from this memory
system.physmem.bytes_inst_read::switch_cpus03.inst         3840                       # Number of instructions bytes read from this memory
system.physmem.bytes_inst_read::switch_cpus04.inst         1792                       # Number of instructions bytes read from this memory
system.physmem.bytes_inst_read::switch_cpus05.inst         1792                       # Number of instructions bytes read from this memory
system.physmem.bytes_inst_read::switch_cpus06.inst         1920                       # Number of instructions bytes read from this memory
system.physmem.bytes_inst_read::switch_cpus07.inst         3328                       # Number of instructions bytes read from this memory
system.physmem.bytes_inst_read::switch_cpus08.inst         1920                       # Number of instructions bytes read from this memory
system.physmem.bytes_inst_read::switch_cpus09.inst         3328                       # Number of instructions bytes read from this memory
system.physmem.bytes_inst_read::switch_cpus10.inst         3712                       # Number of instructions bytes read from this memory
system.physmem.bytes_inst_read::switch_cpus11.inst         3200                       # Number of instructions bytes read from this memory
system.physmem.bytes_inst_read::switch_cpus12.inst         1792                       # Number of instructions bytes read from this memory
system.physmem.bytes_inst_read::switch_cpus13.inst         1792                       # Number of instructions bytes read from this memory
system.physmem.bytes_inst_read::switch_cpus14.inst         3712                       # Number of instructions bytes read from this memory
system.physmem.bytes_inst_read::switch_cpus15.inst         3072                       # Number of instructions bytes read from this memory
system.physmem.bytes_inst_read::total           44544                       # Number of instructions bytes read from this memory
system.physmem.bytes_written::writebacks       160256                       # Number of bytes written to this memory
system.physmem.bytes_written::total            160256                       # Number of bytes written to this memory
system.physmem.num_reads::switch_cpus00.inst           29                       # Number of read requests responded to by this memory
system.physmem.num_reads::switch_cpus00.data          129                       # Number of read requests responded to by this memory
system.physmem.num_reads::switch_cpus01.inst           30                       # Number of read requests responded to by this memory
system.physmem.num_reads::switch_cpus01.data          134                       # Number of read requests responded to by this memory
system.physmem.num_reads::switch_cpus02.inst           14                       # Number of read requests responded to by this memory
system.physmem.num_reads::switch_cpus02.data          250                       # Number of read requests responded to by this memory
system.physmem.num_reads::switch_cpus03.inst           30                       # Number of read requests responded to by this memory
system.physmem.num_reads::switch_cpus03.data          133                       # Number of read requests responded to by this memory
system.physmem.num_reads::switch_cpus04.inst           14                       # Number of read requests responded to by this memory
system.physmem.num_reads::switch_cpus04.data          246                       # Number of read requests responded to by this memory
system.physmem.num_reads::switch_cpus05.inst           14                       # Number of read requests responded to by this memory
system.physmem.num_reads::switch_cpus05.data          256                       # Number of read requests responded to by this memory
system.physmem.num_reads::switch_cpus06.inst           15                       # Number of read requests responded to by this memory
system.physmem.num_reads::switch_cpus06.data          210                       # Number of read requests responded to by this memory
system.physmem.num_reads::switch_cpus07.inst           26                       # Number of read requests responded to by this memory
system.physmem.num_reads::switch_cpus07.data          115                       # Number of read requests responded to by this memory
system.physmem.num_reads::switch_cpus08.inst           15                       # Number of read requests responded to by this memory
system.physmem.num_reads::switch_cpus08.data          206                       # Number of read requests responded to by this memory
system.physmem.num_reads::switch_cpus09.inst           26                       # Number of read requests responded to by this memory
system.physmem.num_reads::switch_cpus09.data          115                       # Number of read requests responded to by this memory
system.physmem.num_reads::switch_cpus10.inst           29                       # Number of read requests responded to by this memory
system.physmem.num_reads::switch_cpus10.data          127                       # Number of read requests responded to by this memory
system.physmem.num_reads::switch_cpus11.inst           25                       # Number of read requests responded to by this memory
system.physmem.num_reads::switch_cpus11.data          114                       # Number of read requests responded to by this memory
system.physmem.num_reads::switch_cpus12.inst           14                       # Number of read requests responded to by this memory
system.physmem.num_reads::switch_cpus12.data          161                       # Number of read requests responded to by this memory
system.physmem.num_reads::switch_cpus13.inst           14                       # Number of read requests responded to by this memory
system.physmem.num_reads::switch_cpus13.data          253                       # Number of read requests responded to by this memory
system.physmem.num_reads::switch_cpus14.inst           29                       # Number of read requests responded to by this memory
system.physmem.num_reads::switch_cpus14.data          133                       # Number of read requests responded to by this memory
system.physmem.num_reads::switch_cpus15.inst           24                       # Number of read requests responded to by this memory
system.physmem.num_reads::switch_cpus15.data          580                       # Number of read requests responded to by this memory
system.physmem.num_reads::total                  3510                       # Number of read requests responded to by this memory
system.physmem.num_writes::writebacks            1252                       # Number of write requests responded to by this memory
system.physmem.num_writes::functional               0                       # Number of write requests responded to by this memory
system.physmem.num_writes::interrupt                0                       # Number of write requests responded to by this memory
system.physmem.num_writes::switch_cpus00.dtb.walker            0                       # Number of write requests responded to by this memory
system.physmem.num_writes::switch_cpus00.itb.walker            0                       # Number of write requests responded to by this memory
system.physmem.num_writes::switch_cpus00.inst            0                       # Number of write requests responded to by this memory
system.physmem.num_writes::switch_cpus00.data            0                       # Number of write requests responded to by this memory
system.physmem.num_writes::switch_cpus01.dtb.walker            0                       # Number of write requests responded to by this memory
system.physmem.num_writes::switch_cpus01.itb.walker            0                       # Number of write requests responded to by this memory
system.physmem.num_writes::switch_cpus01.inst            0                       # Number of write requests responded to by this memory
system.physmem.num_writes::switch_cpus01.data            0                       # Number of write requests responded to by this memory
system.physmem.num_writes::switch_cpus02.dtb.walker            0                       # Number of write requests responded to by this memory
system.physmem.num_writes::switch_cpus02.itb.walker            0                       # Number of write requests responded to by this memory
system.physmem.num_writes::switch_cpus02.inst            0                       # Number of write requests responded to by this memory
system.physmem.num_writes::switch_cpus02.data            0                       # Number of write requests responded to by this memory
system.physmem.num_writes::switch_cpus03.dtb.walker            0                       # Number of write requests responded to by this memory
system.physmem.num_writes::switch_cpus03.itb.walker            0                       # Number of write requests responded to by this memory
system.physmem.num_writes::switch_cpus03.inst            0                       # Number of write requests responded to by this memory
system.physmem.num_writes::switch_cpus03.data            0                       # Number of write requests responded to by this memory
system.physmem.num_writes::switch_cpus04.dtb.walker            0                       # Number of write requests responded to by this memory
system.physmem.num_writes::switch_cpus04.itb.walker            0                       # Number of write requests responded to by this memory
system.physmem.num_writes::switch_cpus04.inst            0                       # Number of write requests responded to by this memory
system.physmem.num_writes::switch_cpus04.data            0                       # Number of write requests responded to by this memory
system.physmem.num_writes::switch_cpus05.dtb.walker            0                       # Number of write requests responded to by this memory
system.physmem.num_writes::switch_cpus05.itb.walker            0                       # Number of write requests responded to by this memory
system.physmem.num_writes::switch_cpus05.inst            0                       # Number of write requests responded to by this memory
system.physmem.num_writes::switch_cpus05.data            0                       # Number of write requests responded to by this memory
system.physmem.num_writes::switch_cpus06.dtb.walker            0                       # Number of write requests responded to by this memory
system.physmem.num_writes::switch_cpus06.itb.walker            0                       # Number of write requests responded to by this memory
system.physmem.num_writes::switch_cpus06.inst            0                       # Number of write requests responded to by this memory
system.physmem.num_writes::switch_cpus06.data            0                       # Number of write requests responded to by this memory
system.physmem.num_writes::switch_cpus07.dtb.walker            0                       # Number of write requests responded to by this memory
system.physmem.num_writes::switch_cpus07.itb.walker            0                       # Number of write requests responded to by this memory
system.physmem.num_writes::switch_cpus07.inst            0                       # Number of write requests responded to by this memory
system.physmem.num_writes::switch_cpus07.data            0                       # Number of write requests responded to by this memory
system.physmem.num_writes::switch_cpus08.dtb.walker            0                       # Number of write requests responded to by this memory
system.physmem.num_writes::switch_cpus08.itb.walker            0                       # Number of write requests responded to by this memory
system.physmem.num_writes::switch_cpus08.inst            0                       # Number of write requests responded to by this memory
system.physmem.num_writes::switch_cpus08.data            0                       # Number of write requests responded to by this memory
system.physmem.num_writes::switch_cpus09.dtb.walker            0                       # Number of write requests responded to by this memory
system.physmem.num_writes::switch_cpus09.itb.walker            0                       # Number of write requests responded to by this memory
system.physmem.num_writes::switch_cpus09.inst            0                       # Number of write requests responded to by this memory
system.physmem.num_writes::switch_cpus09.data            0                       # Number of write requests responded to by this memory
system.physmem.num_writes::switch_cpus10.dtb.walker            0                       # Number of write requests responded to by this memory
system.physmem.num_writes::switch_cpus10.itb.walker            0                       # Number of write requests responded to by this memory
system.physmem.num_writes::switch_cpus10.inst            0                       # Number of write requests responded to by this memory
system.physmem.num_writes::switch_cpus10.data            0                       # Number of write requests responded to by this memory
system.physmem.num_writes::switch_cpus11.dtb.walker            0                       # Number of write requests responded to by this memory
system.physmem.num_writes::switch_cpus11.itb.walker            0                       # Number of write requests responded to by this memory
system.physmem.num_writes::switch_cpus11.inst            0                       # Number of write requests responded to by this memory
system.physmem.num_writes::switch_cpus11.data            0                       # Number of write requests responded to by this memory
system.physmem.num_writes::switch_cpus12.dtb.walker            0                       # Number of write requests responded to by this memory
system.physmem.num_writes::switch_cpus12.itb.walker            0                       # Number of write requests responded to by this memory
system.physmem.num_writes::switch_cpus12.inst            0                       # Number of write requests responded to by this memory
system.physmem.num_writes::switch_cpus12.data            0                       # Number of write requests responded to by this memory
system.physmem.num_writes::switch_cpus13.dtb.walker            0                       # Number of write requests responded to by this memory
system.physmem.num_writes::switch_cpus13.itb.walker            0                       # Number of write requests responded to by this memory
system.physmem.num_writes::switch_cpus13.inst            0                       # Number of write requests responded to by this memory
system.physmem.num_writes::switch_cpus13.data            0                       # Number of write requests responded to by this memory
system.physmem.num_writes::switch_cpus14.dtb.walker            0                       # Number of write requests responded to by this memory
system.physmem.num_writes::switch_cpus14.itb.walker            0                       # Number of write requests responded to by this memory
system.physmem.num_writes::switch_cpus14.inst            0                       # Number of write requests responded to by this memory
system.physmem.num_writes::switch_cpus14.data            0                       # Number of write requests responded to by this memory
system.physmem.num_writes::switch_cpus15.dtb.walker            0                       # Number of write requests responded to by this memory
system.physmem.num_writes::switch_cpus15.itb.walker            0                       # Number of write requests responded to by this memory
system.physmem.num_writes::switch_cpus15.inst            0                       # Number of write requests responded to by this memory
system.physmem.num_writes::switch_cpus15.data            0                       # Number of write requests responded to by this memory
system.physmem.num_writes::cpu00.dtb.walker            0                       # Number of write requests responded to by this memory
system.physmem.num_writes::cpu00.itb.walker            0                       # Number of write requests responded to by this memory
system.physmem.num_writes::cpu00.inst               0                       # Number of write requests responded to by this memory
system.physmem.num_writes::cpu00.data               0                       # Number of write requests responded to by this memory
system.physmem.num_writes::cpu01.dtb.walker            0                       # Number of write requests responded to by this memory
system.physmem.num_writes::cpu01.itb.walker            0                       # Number of write requests responded to by this memory
system.physmem.num_writes::cpu01.inst               0                       # Number of write requests responded to by this memory
system.physmem.num_writes::cpu01.data               0                       # Number of write requests responded to by this memory
system.physmem.num_writes::cpu02.dtb.walker            0                       # Number of write requests responded to by this memory
system.physmem.num_writes::cpu02.itb.walker            0                       # Number of write requests responded to by this memory
system.physmem.num_writes::cpu02.inst               0                       # Number of write requests responded to by this memory
system.physmem.num_writes::cpu02.data               0                       # Number of write requests responded to by this memory
system.physmem.num_writes::cpu03.dtb.walker            0                       # Number of write requests responded to by this memory
system.physmem.num_writes::cpu03.itb.walker            0                       # Number of write requests responded to by this memory
system.physmem.num_writes::cpu03.inst               0                       # Number of write requests responded to by this memory
system.physmem.num_writes::cpu03.data               0                       # Number of write requests responded to by this memory
system.physmem.num_writes::cpu04.dtb.walker            0                       # Number of write requests responded to by this memory
system.physmem.num_writes::cpu04.itb.walker            0                       # Number of write requests responded to by this memory
system.physmem.num_writes::cpu04.inst               0                       # Number of write requests responded to by this memory
system.physmem.num_writes::cpu04.data               0                       # Number of write requests responded to by this memory
system.physmem.num_writes::cpu05.dtb.walker            0                       # Number of write requests responded to by this memory
system.physmem.num_writes::cpu05.itb.walker            0                       # Number of write requests responded to by this memory
system.physmem.num_writes::cpu05.inst               0                       # Number of write requests responded to by this memory
system.physmem.num_writes::cpu05.data               0                       # Number of write requests responded to by this memory
system.physmem.num_writes::cpu06.dtb.walker            0                       # Number of write requests responded to by this memory
system.physmem.num_writes::cpu06.itb.walker            0                       # Number of write requests responded to by this memory
system.physmem.num_writes::cpu06.inst               0                       # Number of write requests responded to by this memory
system.physmem.num_writes::cpu06.data               0                       # Number of write requests responded to by this memory
system.physmem.num_writes::cpu07.dtb.walker            0                       # Number of write requests responded to by this memory
system.physmem.num_writes::cpu07.itb.walker            0                       # Number of write requests responded to by this memory
system.physmem.num_writes::cpu07.inst               0                       # Number of write requests responded to by this memory
system.physmem.num_writes::cpu07.data               0                       # Number of write requests responded to by this memory
system.physmem.num_writes::cpu08.dtb.walker            0                       # Number of write requests responded to by this memory
system.physmem.num_writes::cpu08.itb.walker            0                       # Number of write requests responded to by this memory
system.physmem.num_writes::cpu08.inst               0                       # Number of write requests responded to by this memory
system.physmem.num_writes::cpu08.data               0                       # Number of write requests responded to by this memory
system.physmem.num_writes::cpu09.dtb.walker            0                       # Number of write requests responded to by this memory
system.physmem.num_writes::cpu09.itb.walker            0                       # Number of write requests responded to by this memory
system.physmem.num_writes::cpu09.inst               0                       # Number of write requests responded to by this memory
system.physmem.num_writes::cpu09.data               0                       # Number of write requests responded to by this memory
system.physmem.num_writes::cpu10.dtb.walker            0                       # Number of write requests responded to by this memory
system.physmem.num_writes::cpu10.itb.walker            0                       # Number of write requests responded to by this memory
system.physmem.num_writes::cpu10.inst               0                       # Number of write requests responded to by this memory
system.physmem.num_writes::cpu10.data               0                       # Number of write requests responded to by this memory
system.physmem.num_writes::cpu11.dtb.walker            0                       # Number of write requests responded to by this memory
system.physmem.num_writes::cpu11.itb.walker            0                       # Number of write requests responded to by this memory
system.physmem.num_writes::cpu11.inst               0                       # Number of write requests responded to by this memory
system.physmem.num_writes::cpu11.data               0                       # Number of write requests responded to by this memory
system.physmem.num_writes::cpu12.dtb.walker            0                       # Number of write requests responded to by this memory
system.physmem.num_writes::cpu12.itb.walker            0                       # Number of write requests responded to by this memory
system.physmem.num_writes::cpu12.inst               0                       # Number of write requests responded to by this memory
system.physmem.num_writes::cpu12.data               0                       # Number of write requests responded to by this memory
system.physmem.num_writes::cpu13.dtb.walker            0                       # Number of write requests responded to by this memory
system.physmem.num_writes::cpu13.itb.walker            0                       # Number of write requests responded to by this memory
system.physmem.num_writes::cpu13.inst               0                       # Number of write requests responded to by this memory
system.physmem.num_writes::cpu13.data               0                       # Number of write requests responded to by this memory
system.physmem.num_writes::cpu14.dtb.walker            0                       # Number of write requests responded to by this memory
system.physmem.num_writes::cpu14.itb.walker            0                       # Number of write requests responded to by this memory
system.physmem.num_writes::cpu14.inst               0                       # Number of write requests responded to by this memory
system.physmem.num_writes::cpu14.data               0                       # Number of write requests responded to by this memory
system.physmem.num_writes::cpu15.dtb.walker            0                       # Number of write requests responded to by this memory
system.physmem.num_writes::cpu15.itb.walker            0                       # Number of write requests responded to by this memory
system.physmem.num_writes::cpu15.inst               0                       # Number of write requests responded to by this memory
system.physmem.num_writes::cpu15.data               0                       # Number of write requests responded to by this memory
system.physmem.num_writes::total                 1252                       # Number of write requests responded to by this memory
system.physmem.bw_read::switch_cpus00.inst      3492983                       # Total read bandwidth from this memory (bytes/s)
system.physmem.bw_read::switch_cpus00.data     15537752                       # Total read bandwidth from this memory (bytes/s)
system.physmem.bw_read::switch_cpus01.inst      3613431                       # Total read bandwidth from this memory (bytes/s)
system.physmem.bw_read::switch_cpus01.data     16139991                       # Total read bandwidth from this memory (bytes/s)
system.physmem.bw_read::switch_cpus02.inst      1686268                       # Total read bandwidth from this memory (bytes/s)
system.physmem.bw_read::switch_cpus02.data     30111923                       # Total read bandwidth from this memory (bytes/s)
system.physmem.bw_read::switch_cpus03.inst      3613431                       # Total read bandwidth from this memory (bytes/s)
system.physmem.bw_read::switch_cpus03.data     16019543                       # Total read bandwidth from this memory (bytes/s)
system.physmem.bw_read::switch_cpus04.inst      1686268                       # Total read bandwidth from this memory (bytes/s)
system.physmem.bw_read::switch_cpus04.data     29630132                       # Total read bandwidth from this memory (bytes/s)
system.physmem.bw_read::switch_cpus05.inst      1686268                       # Total read bandwidth from this memory (bytes/s)
system.physmem.bw_read::switch_cpus05.data     30834609                       # Total read bandwidth from this memory (bytes/s)
system.physmem.bw_read::switch_cpus06.inst      1806715                       # Total read bandwidth from this memory (bytes/s)
system.physmem.bw_read::switch_cpus06.data     25294015                       # Total read bandwidth from this memory (bytes/s)
system.physmem.bw_read::switch_cpus07.inst      3131640                       # Total read bandwidth from this memory (bytes/s)
system.physmem.bw_read::switch_cpus07.data     13851484                       # Total read bandwidth from this memory (bytes/s)
system.physmem.bw_read::switch_cpus08.inst      1806715                       # Total read bandwidth from this memory (bytes/s)
system.physmem.bw_read::switch_cpus08.data     24812224                       # Total read bandwidth from this memory (bytes/s)
system.physmem.bw_read::switch_cpus09.inst      3131640                       # Total read bandwidth from this memory (bytes/s)
system.physmem.bw_read::switch_cpus09.data     13851484                       # Total read bandwidth from this memory (bytes/s)
system.physmem.bw_read::switch_cpus10.inst      3492983                       # Total read bandwidth from this memory (bytes/s)
system.physmem.bw_read::switch_cpus10.data     15296857                       # Total read bandwidth from this memory (bytes/s)
system.physmem.bw_read::switch_cpus11.inst      3011192                       # Total read bandwidth from this memory (bytes/s)
system.physmem.bw_read::switch_cpus11.data     13731037                       # Total read bandwidth from this memory (bytes/s)
system.physmem.bw_read::switch_cpus12.inst      1686268                       # Total read bandwidth from this memory (bytes/s)
system.physmem.bw_read::switch_cpus12.data     19392078                       # Total read bandwidth from this memory (bytes/s)
system.physmem.bw_read::switch_cpus13.inst      1686268                       # Total read bandwidth from this memory (bytes/s)
system.physmem.bw_read::switch_cpus13.data     30473266                       # Total read bandwidth from this memory (bytes/s)
system.physmem.bw_read::switch_cpus14.inst      3492983                       # Total read bandwidth from this memory (bytes/s)
system.physmem.bw_read::switch_cpus14.data     16019543                       # Total read bandwidth from this memory (bytes/s)
system.physmem.bw_read::switch_cpus15.inst      2890745                       # Total read bandwidth from this memory (bytes/s)
system.physmem.bw_read::switch_cpus15.data     69859661                       # Total read bandwidth from this memory (bytes/s)
system.physmem.bw_read::total               422771396                       # Total read bandwidth from this memory (bytes/s)
system.physmem.bw_inst_read::switch_cpus00.inst      3492983                       # Instruction read bandwidth from this memory (bytes/s)
system.physmem.bw_inst_read::switch_cpus01.inst      3613431                       # Instruction read bandwidth from this memory (bytes/s)
system.physmem.bw_inst_read::switch_cpus02.inst      1686268                       # Instruction read bandwidth from this memory (bytes/s)
system.physmem.bw_inst_read::switch_cpus03.inst      3613431                       # Instruction read bandwidth from this memory (bytes/s)
system.physmem.bw_inst_read::switch_cpus04.inst      1686268                       # Instruction read bandwidth from this memory (bytes/s)
system.physmem.bw_inst_read::switch_cpus05.inst      1686268                       # Instruction read bandwidth from this memory (bytes/s)
system.physmem.bw_inst_read::switch_cpus06.inst      1806715                       # Instruction read bandwidth from this memory (bytes/s)
system.physmem.bw_inst_read::switch_cpus07.inst      3131640                       # Instruction read bandwidth from this memory (bytes/s)
system.physmem.bw_inst_read::switch_cpus08.inst      1806715                       # Instruction read bandwidth from this memory (bytes/s)
system.physmem.bw_inst_read::switch_cpus09.inst      3131640                       # Instruction read bandwidth from this memory (bytes/s)
system.physmem.bw_inst_read::switch_cpus10.inst      3492983                       # Instruction read bandwidth from this memory (bytes/s)
system.physmem.bw_inst_read::switch_cpus11.inst      3011192                       # Instruction read bandwidth from this memory (bytes/s)
system.physmem.bw_inst_read::switch_cpus12.inst      1686268                       # Instruction read bandwidth from this memory (bytes/s)
system.physmem.bw_inst_read::switch_cpus13.inst      1686268                       # Instruction read bandwidth from this memory (bytes/s)
system.physmem.bw_inst_read::switch_cpus14.inst      3492983                       # Instruction read bandwidth from this memory (bytes/s)
system.physmem.bw_inst_read::switch_cpus15.inst      2890745                       # Instruction read bandwidth from this memory (bytes/s)
system.physmem.bw_inst_read::total           41915796                       # Instruction read bandwidth from this memory (bytes/s)
system.physmem.bw_write::writebacks         150800509                       # Write bandwidth from this memory (bytes/s)
system.physmem.bw_write::total              150800509                       # Write bandwidth from this memory (bytes/s)
system.physmem.bw_total::writebacks         150800509                       # Total bandwidth to/from this memory (bytes/s)
system.physmem.bw_total::switch_cpus00.inst      3492983                       # Total bandwidth to/from this memory (bytes/s)
system.physmem.bw_total::switch_cpus00.data     15537752                       # Total bandwidth to/from this memory (bytes/s)
system.physmem.bw_total::switch_cpus01.inst      3613431                       # Total bandwidth to/from this memory (bytes/s)
system.physmem.bw_total::switch_cpus01.data     16139991                       # Total bandwidth to/from this memory (bytes/s)
system.physmem.bw_total::switch_cpus02.inst      1686268                       # Total bandwidth to/from this memory (bytes/s)
system.physmem.bw_total::switch_cpus02.data     30111923                       # Total bandwidth to/from this memory (bytes/s)
system.physmem.bw_total::switch_cpus03.inst      3613431                       # Total bandwidth to/from this memory (bytes/s)
system.physmem.bw_total::switch_cpus03.data     16019543                       # Total bandwidth to/from this memory (bytes/s)
system.physmem.bw_total::switch_cpus04.inst      1686268                       # Total bandwidth to/from this memory (bytes/s)
system.physmem.bw_total::switch_cpus04.data     29630132                       # Total bandwidth to/from this memory (bytes/s)
system.physmem.bw_total::switch_cpus05.inst      1686268                       # Total bandwidth to/from this memory (bytes/s)
system.physmem.bw_total::switch_cpus05.data     30834609                       # Total bandwidth to/from this memory (bytes/s)
system.physmem.bw_total::switch_cpus06.inst      1806715                       # Total bandwidth to/from this memory (bytes/s)
system.physmem.bw_total::switch_cpus06.data     25294015                       # Total bandwidth to/from this memory (bytes/s)
system.physmem.bw_total::switch_cpus07.inst      3131640                       # Total bandwidth to/from this memory (bytes/s)
system.physmem.bw_total::switch_cpus07.data     13851484                       # Total bandwidth to/from this memory (bytes/s)
system.physmem.bw_total::switch_cpus08.inst      1806715                       # Total bandwidth to/from this memory (bytes/s)
system.physmem.bw_total::switch_cpus08.data     24812224                       # Total bandwidth to/from this memory (bytes/s)
system.physmem.bw_total::switch_cpus09.inst      3131640                       # Total bandwidth to/from this memory (bytes/s)
system.physmem.bw_total::switch_cpus09.data     13851484                       # Total bandwidth to/from this memory (bytes/s)
system.physmem.bw_total::switch_cpus10.inst      3492983                       # Total bandwidth to/from this memory (bytes/s)
system.physmem.bw_total::switch_cpus10.data     15296857                       # Total bandwidth to/from this memory (bytes/s)
system.physmem.bw_total::switch_cpus11.inst      3011192                       # Total bandwidth to/from this memory (bytes/s)
system.physmem.bw_total::switch_cpus11.data     13731037                       # Total bandwidth to/from this memory (bytes/s)
system.physmem.bw_total::switch_cpus12.inst      1686268                       # Total bandwidth to/from this memory (bytes/s)
system.physmem.bw_total::switch_cpus12.data     19392078                       # Total bandwidth to/from this memory (bytes/s)
system.physmem.bw_total::switch_cpus13.inst      1686268                       # Total bandwidth to/from this memory (bytes/s)
system.physmem.bw_total::switch_cpus13.data     30473266                       # Total bandwidth to/from this memory (bytes/s)
system.physmem.bw_total::switch_cpus14.inst      3492983                       # Total bandwidth to/from this memory (bytes/s)
system.physmem.bw_total::switch_cpus14.data     16019543                       # Total bandwidth to/from this memory (bytes/s)
system.physmem.bw_total::switch_cpus15.inst      2890745                       # Total bandwidth to/from this memory (bytes/s)
system.physmem.bw_total::switch_cpus15.data     69859661                       # Total bandwidth to/from this memory (bytes/s)
system.physmem.bw_total::total              573571905                       # Total bandwidth to/from this memory (bytes/s)
system.switch_cpus00.dtb.inst_hits                  0                       # ITB inst hits
system.switch_cpus00.dtb.inst_misses                0                       # ITB inst misses
system.switch_cpus00.dtb.read_hits                  0                       # DTB read hits
system.switch_cpus00.dtb.read_misses                0                       # DTB read misses
system.switch_cpus00.dtb.write_hits                 0                       # DTB write hits
system.switch_cpus00.dtb.write_misses               0                       # DTB write misses
system.switch_cpus00.dtb.flush_tlb                  0                       # Number of times complete TLB was flushed
system.switch_cpus00.dtb.flush_tlb_mva              0                       # Number of times TLB was flushed by MVA
system.switch_cpus00.dtb.flush_tlb_mva_asid            0                       # Number of times TLB was flushed by MVA & ASID
system.switch_cpus00.dtb.flush_tlb_asid             0                       # Number of times TLB was flushed by ASID
system.switch_cpus00.dtb.flush_entries              0                       # Number of entries that have been flushed from TLB
system.switch_cpus00.dtb.align_faults               0                       # Number of TLB faults due to alignment restrictions
system.switch_cpus00.dtb.prefetch_faults            0                       # Number of TLB faults due to prefetch
system.switch_cpus00.dtb.domain_faults              0                       # Number of TLB faults due to domain restrictions
system.switch_cpus00.dtb.perms_faults               0                       # Number of TLB faults due to permissions restrictions
system.switch_cpus00.dtb.read_accesses              0                       # DTB read accesses
system.switch_cpus00.dtb.write_accesses             0                       # DTB write accesses
system.switch_cpus00.dtb.inst_accesses              0                       # ITB inst accesses
system.switch_cpus00.dtb.hits                       0                       # DTB hits
system.switch_cpus00.dtb.misses                     0                       # DTB misses
system.switch_cpus00.dtb.accesses                   0                       # DTB accesses
system.switch_cpus00.itb.inst_hits                  0                       # ITB inst hits
system.switch_cpus00.itb.inst_misses                0                       # ITB inst misses
system.switch_cpus00.itb.read_hits                  0                       # DTB read hits
system.switch_cpus00.itb.read_misses                0                       # DTB read misses
system.switch_cpus00.itb.write_hits                 0                       # DTB write hits
system.switch_cpus00.itb.write_misses               0                       # DTB write misses
system.switch_cpus00.itb.flush_tlb                  0                       # Number of times complete TLB was flushed
system.switch_cpus00.itb.flush_tlb_mva              0                       # Number of times TLB was flushed by MVA
system.switch_cpus00.itb.flush_tlb_mva_asid            0                       # Number of times TLB was flushed by MVA & ASID
system.switch_cpus00.itb.flush_tlb_asid             0                       # Number of times TLB was flushed by ASID
system.switch_cpus00.itb.flush_entries              0                       # Number of entries that have been flushed from TLB
system.switch_cpus00.itb.align_faults               0                       # Number of TLB faults due to alignment restrictions
system.switch_cpus00.itb.prefetch_faults            0                       # Number of TLB faults due to prefetch
system.switch_cpus00.itb.domain_faults              0                       # Number of TLB faults due to domain restrictions
system.switch_cpus00.itb.perms_faults               0                       # Number of TLB faults due to permissions restrictions
system.switch_cpus00.itb.read_accesses              0                       # DTB read accesses
system.switch_cpus00.itb.write_accesses             0                       # DTB write accesses
system.switch_cpus00.itb.inst_accesses              0                       # ITB inst accesses
system.switch_cpus00.itb.hits                       0                       # DTB hits
system.switch_cpus00.itb.misses                     0                       # DTB misses
system.switch_cpus00.itb.accesses                   0                       # DTB accesses
system.cpu00.workload.num_syscalls                  1                       # Number of system calls
system.switch_cpus00.numCycles                2548447                       # number of cpu cycles simulated
system.switch_cpus00.numWorkItemsStarted            0                       # number of work items this cpu started
system.switch_cpus00.numWorkItemsCompleted            0                       # number of work items this cpu completed
system.switch_cpus00.BPredUnit.lookups         210650                       # Number of BP lookups
system.switch_cpus00.BPredUnit.condPredicted       172471                       # Number of conditional branches predicted
system.switch_cpus00.BPredUnit.condIncorrect        22200                       # Number of conditional branches incorrect
system.switch_cpus00.BPredUnit.BTBLookups        86401                       # Number of BTB lookups
system.switch_cpus00.BPredUnit.BTBHits          80761                       # Number of BTB hits
system.switch_cpus00.BPredUnit.BTBCorrect            0                       # Number of correct BTB predictions (this stat may not work properly.
system.switch_cpus00.BPredUnit.usedRAS          21271                       # Number of times the RAS was used to get a target.
system.switch_cpus00.BPredUnit.RASInCorrect         1036                       # Number of incorrect RAS predictions.
system.switch_cpus00.fetch.icacheStallCycles      2017450                       # Number of cycles fetch is stalled on an Icache miss
system.switch_cpus00.fetch.Insts              1179039                       # Number of instructions fetch has processed
system.switch_cpus00.fetch.Branches            210650                       # Number of branches that fetch encountered
system.switch_cpus00.fetch.predictedBranches       102032                       # Number of branches that fetch has predicted taken
system.switch_cpus00.fetch.Cycles              244910                       # Number of cycles fetch has run and was not squashing or blocked
system.switch_cpus00.fetch.SquashCycles         61576                       # Number of cycles fetch has spent squashing
system.switch_cpus00.fetch.BlockedCycles        44863                       # Number of cycles fetch has spent blocked
system.switch_cpus00.fetch.CacheLines          124951                       # Number of cache lines fetched
system.switch_cpus00.fetch.IcacheSquashes        22055                       # Number of outstanding Icache misses that were squashed
system.switch_cpus00.fetch.rateDist::samples      2346321                       # Number of instructions fetched each cycle (Total)
system.switch_cpus00.fetch.rateDist::mean     0.617494                       # Number of instructions fetched each cycle (Total)
system.switch_cpus00.fetch.rateDist::stdev     1.965353                       # Number of instructions fetched each cycle (Total)
system.switch_cpus00.fetch.rateDist::underflows            0      0.00%      0.00% # Number of instructions fetched each cycle (Total)
system.switch_cpus00.fetch.rateDist::0        2101411     89.56%     89.56% # Number of instructions fetched each cycle (Total)
system.switch_cpus00.fetch.rateDist::1          11329      0.48%     90.04% # Number of instructions fetched each cycle (Total)
system.switch_cpus00.fetch.rateDist::2          17835      0.76%     90.80% # Number of instructions fetched each cycle (Total)
system.switch_cpus00.fetch.rateDist::3          23869      1.02%     91.82% # Number of instructions fetched each cycle (Total)
system.switch_cpus00.fetch.rateDist::4          25108      1.07%     92.89% # Number of instructions fetched each cycle (Total)
system.switch_cpus00.fetch.rateDist::5          21301      0.91%     93.80% # Number of instructions fetched each cycle (Total)
system.switch_cpus00.fetch.rateDist::6          11307      0.48%     94.28% # Number of instructions fetched each cycle (Total)
system.switch_cpus00.fetch.rateDist::7          17835      0.76%     95.04% # Number of instructions fetched each cycle (Total)
system.switch_cpus00.fetch.rateDist::8         116326      4.96%    100.00% # Number of instructions fetched each cycle (Total)
system.switch_cpus00.fetch.rateDist::overflows            0      0.00%    100.00% # Number of instructions fetched each cycle (Total)
system.switch_cpus00.fetch.rateDist::min_value            0                       # Number of instructions fetched each cycle (Total)
system.switch_cpus00.fetch.rateDist::max_value            8                       # Number of instructions fetched each cycle (Total)
system.switch_cpus00.fetch.rateDist::total      2346321                       # Number of instructions fetched each cycle (Total)
system.switch_cpus00.fetch.branchRate        0.082658                       # Number of branch fetches per cycle
system.switch_cpus00.fetch.rate              0.462650                       # Number of inst fetches per cycle
system.switch_cpus00.decode.IdleCycles        1997175                       # Number of cycles decode is idle
system.switch_cpus00.decode.BlockedCycles        65593                       # Number of cycles decode is blocked
system.switch_cpus00.decode.RunCycles          244282                       # Number of cycles decode is running
system.switch_cpus00.decode.UnblockCycles          381                       # Number of cycles decode is unblocking
system.switch_cpus00.decode.SquashCycles        38888                       # Number of cycles decode is squashing
system.switch_cpus00.decode.BranchResolved        34391                       # Number of times decode resolved a branch
system.switch_cpus00.decode.BranchMispred          211                       # Number of times decode detected a branch misprediction
system.switch_cpus00.decode.DecodedInsts      1445462                       # Number of instructions handled by decode
system.switch_cpus00.decode.SquashedInsts         1262                       # Number of squashed instructions handled by decode
system.switch_cpus00.rename.SquashCycles        38888                       # Number of cycles rename is squashing
system.switch_cpus00.rename.IdleCycles        2003118                       # Number of cycles rename is idle
system.switch_cpus00.rename.BlockCycles         13438                       # Number of cycles rename is blocking
system.switch_cpus00.rename.serializeStallCycles        39377                       # count of cycles rename stalled for serializing inst
system.switch_cpus00.rename.RunCycles          238730                       # Number of cycles rename is running
system.switch_cpus00.rename.UnblockCycles        12766                       # Number of cycles rename is unblocking
system.switch_cpus00.rename.RenamedInsts      1443912                       # Number of instructions processed by rename
system.switch_cpus00.rename.ROBFullEvents            7                       # Number of times rename has blocked due to ROB full
system.switch_cpus00.rename.IQFullEvents         1552                       # Number of times rename has blocked due to IQ full
system.switch_cpus00.rename.LSQFullEvents         5701                       # Number of times rename has blocked due to LSQ full
system.switch_cpus00.rename.RenamedOperands      2015451                       # Number of destination operands rename has renamed
system.switch_cpus00.rename.RenameLookups      6714641                       # Number of register rename lookups that rename has made
system.switch_cpus00.rename.int_rename_lookups      6714641                       # Number of integer rename lookups
system.switch_cpus00.rename.CommittedMaps      1715223                       # Number of HB maps that are committed
system.switch_cpus00.rename.UndoneMaps         300217                       # Number of HB maps that are undone due to squashing
system.switch_cpus00.rename.serializingInsts          347                       # count of serializing insts renamed
system.switch_cpus00.rename.tempSerializingInsts          178                       # count of temporary serializing insts renamed
system.switch_cpus00.rename.skidInsts           40160                       # count of insts added to the skid buffer
system.switch_cpus00.memDep0.insertedLoads       136273                       # Number of loads inserted to the mem dependence unit.
system.switch_cpus00.memDep0.insertedStores        72377                       # Number of stores inserted to the mem dependence unit.
system.switch_cpus00.memDep0.conflictingLoads          752                       # Number of conflicting loads.
system.switch_cpus00.memDep0.conflictingStores        15487                       # Number of conflicting stores.
system.switch_cpus00.iq.iqInstsAdded          1440503                       # Number of instructions added to the IQ (excludes non-spec)
system.switch_cpus00.iq.iqNonSpecInstsAdded          349                       # Number of non-speculative instructions added to the IQ
system.switch_cpus00.iq.iqInstsIssued         1357447                       # Number of instructions issued
system.switch_cpus00.iq.iqSquashedInstsIssued          313                       # Number of squashed instructions issued
system.switch_cpus00.iq.iqSquashedInstsExamined       178158                       # Number of squashed instructions iterated over during squash; mainly for profiling
system.switch_cpus00.iq.iqSquashedOperandsExamined       434984                       # Number of squashed operands that are examined and possibly removed from graph
system.switch_cpus00.iq.iqSquashedNonSpecRemoved            8                       # Number of squashed non-spec instructions that were removed
system.switch_cpus00.iq.issued_per_cycle::samples      2346321                       # Number of insts issued each cycle
system.switch_cpus00.iq.issued_per_cycle::mean     0.578543                       # Number of insts issued each cycle
system.switch_cpus00.iq.issued_per_cycle::stdev     1.271806                       # Number of insts issued each cycle
system.switch_cpus00.iq.issued_per_cycle::underflows            0      0.00%      0.00% # Number of insts issued each cycle
system.switch_cpus00.iq.issued_per_cycle::0      1773664     75.59%     75.59% # Number of insts issued each cycle
system.switch_cpus00.iq.issued_per_cycle::1       234349      9.99%     85.58% # Number of insts issued each cycle
system.switch_cpus00.iq.issued_per_cycle::2       119195      5.08%     90.66% # Number of insts issued each cycle
system.switch_cpus00.iq.issued_per_cycle::3        90419      3.85%     94.52% # Number of insts issued each cycle
system.switch_cpus00.iq.issued_per_cycle::4        70960      3.02%     97.54% # Number of insts issued each cycle
system.switch_cpus00.iq.issued_per_cycle::5        28820      1.23%     98.77% # Number of insts issued each cycle
system.switch_cpus00.iq.issued_per_cycle::6        18126      0.77%     99.54% # Number of insts issued each cycle
system.switch_cpus00.iq.issued_per_cycle::7         9549      0.41%     99.95% # Number of insts issued each cycle
system.switch_cpus00.iq.issued_per_cycle::8         1239      0.05%    100.00% # Number of insts issued each cycle
system.switch_cpus00.iq.issued_per_cycle::overflows            0      0.00%    100.00% # Number of insts issued each cycle
system.switch_cpus00.iq.issued_per_cycle::min_value            0                       # Number of insts issued each cycle
system.switch_cpus00.iq.issued_per_cycle::max_value            8                       # Number of insts issued each cycle
system.switch_cpus00.iq.issued_per_cycle::total      2346321                       # Number of insts issued each cycle
system.switch_cpus00.iq.fu_full::No_OpClass            0      0.00%      0.00% # attempts to use FU when none available
system.switch_cpus00.iq.fu_full::IntAlu           313     12.71%     12.71% # attempts to use FU when none available
system.switch_cpus00.iq.fu_full::IntMult            0      0.00%     12.71% # attempts to use FU when none available
system.switch_cpus00.iq.fu_full::IntDiv             0      0.00%     12.71% # attempts to use FU when none available
system.switch_cpus00.iq.fu_full::FloatAdd            0      0.00%     12.71% # attempts to use FU when none available
system.switch_cpus00.iq.fu_full::FloatCmp            0      0.00%     12.71% # attempts to use FU when none available
system.switch_cpus00.iq.fu_full::FloatCvt            0      0.00%     12.71% # attempts to use FU when none available
system.switch_cpus00.iq.fu_full::FloatMult            0      0.00%     12.71% # attempts to use FU when none available
system.switch_cpus00.iq.fu_full::FloatDiv            0      0.00%     12.71% # attempts to use FU when none available
system.switch_cpus00.iq.fu_full::FloatSqrt            0      0.00%     12.71% # attempts to use FU when none available
system.switch_cpus00.iq.fu_full::SimdAdd            0      0.00%     12.71% # attempts to use FU when none available
system.switch_cpus00.iq.fu_full::SimdAddAcc            0      0.00%     12.71% # attempts to use FU when none available
system.switch_cpus00.iq.fu_full::SimdAlu            0      0.00%     12.71% # attempts to use FU when none available
system.switch_cpus00.iq.fu_full::SimdCmp            0      0.00%     12.71% # attempts to use FU when none available
system.switch_cpus00.iq.fu_full::SimdCvt            0      0.00%     12.71% # attempts to use FU when none available
system.switch_cpus00.iq.fu_full::SimdMisc            0      0.00%     12.71% # attempts to use FU when none available
system.switch_cpus00.iq.fu_full::SimdMult            0      0.00%     12.71% # attempts to use FU when none available
system.switch_cpus00.iq.fu_full::SimdMultAcc            0      0.00%     12.71% # attempts to use FU when none available
system.switch_cpus00.iq.fu_full::SimdShift            0      0.00%     12.71% # attempts to use FU when none available
system.switch_cpus00.iq.fu_full::SimdShiftAcc            0      0.00%     12.71% # attempts to use FU when none available
system.switch_cpus00.iq.fu_full::SimdSqrt            0      0.00%     12.71% # attempts to use FU when none available
system.switch_cpus00.iq.fu_full::SimdFloatAdd            0      0.00%     12.71% # attempts to use FU when none available
system.switch_cpus00.iq.fu_full::SimdFloatAlu            0      0.00%     12.71% # attempts to use FU when none available
system.switch_cpus00.iq.fu_full::SimdFloatCmp            0      0.00%     12.71% # attempts to use FU when none available
system.switch_cpus00.iq.fu_full::SimdFloatCvt            0      0.00%     12.71% # attempts to use FU when none available
system.switch_cpus00.iq.fu_full::SimdFloatDiv            0      0.00%     12.71% # attempts to use FU when none available
system.switch_cpus00.iq.fu_full::SimdFloatMisc            0      0.00%     12.71% # attempts to use FU when none available
system.switch_cpus00.iq.fu_full::SimdFloatMult            0      0.00%     12.71% # attempts to use FU when none available
system.switch_cpus00.iq.fu_full::SimdFloatMultAcc            0      0.00%     12.71% # attempts to use FU when none available
system.switch_cpus00.iq.fu_full::SimdFloatSqrt            0      0.00%     12.71% # attempts to use FU when none available
system.switch_cpus00.iq.fu_full::MemRead          909     36.92%     49.63% # attempts to use FU when none available
system.switch_cpus00.iq.fu_full::MemWrite         1240     50.37%    100.00% # attempts to use FU when none available
system.switch_cpus00.iq.fu_full::IprAccess            0      0.00%    100.00% # attempts to use FU when none available
system.switch_cpus00.iq.fu_full::InstPrefetch            0      0.00%    100.00% # attempts to use FU when none available
system.switch_cpus00.iq.FU_type_0::No_OpClass            0      0.00%      0.00% # Type of FU issued
system.switch_cpus00.iq.FU_type_0::IntAlu      1141743     84.11%     84.11% # Type of FU issued
system.switch_cpus00.iq.FU_type_0::IntMult        20239      1.49%     85.60% # Type of FU issued
system.switch_cpus00.iq.FU_type_0::IntDiv            0      0.00%     85.60% # Type of FU issued
system.switch_cpus00.iq.FU_type_0::FloatAdd            0      0.00%     85.60% # Type of FU issued
system.switch_cpus00.iq.FU_type_0::FloatCmp            0      0.00%     85.60% # Type of FU issued
system.switch_cpus00.iq.FU_type_0::FloatCvt            0      0.00%     85.60% # Type of FU issued
system.switch_cpus00.iq.FU_type_0::FloatMult            0      0.00%     85.60% # Type of FU issued
system.switch_cpus00.iq.FU_type_0::FloatDiv            0      0.00%     85.60% # Type of FU issued
system.switch_cpus00.iq.FU_type_0::FloatSqrt            0      0.00%     85.60% # Type of FU issued
system.switch_cpus00.iq.FU_type_0::SimdAdd            0      0.00%     85.60% # Type of FU issued
system.switch_cpus00.iq.FU_type_0::SimdAddAcc            0      0.00%     85.60% # Type of FU issued
system.switch_cpus00.iq.FU_type_0::SimdAlu            0      0.00%     85.60% # Type of FU issued
system.switch_cpus00.iq.FU_type_0::SimdCmp            0      0.00%     85.60% # Type of FU issued
system.switch_cpus00.iq.FU_type_0::SimdCvt            0      0.00%     85.60% # Type of FU issued
system.switch_cpus00.iq.FU_type_0::SimdMisc            0      0.00%     85.60% # Type of FU issued
system.switch_cpus00.iq.FU_type_0::SimdMult            0      0.00%     85.60% # Type of FU issued
system.switch_cpus00.iq.FU_type_0::SimdMultAcc            0      0.00%     85.60% # Type of FU issued
system.switch_cpus00.iq.FU_type_0::SimdShift            0      0.00%     85.60% # Type of FU issued
system.switch_cpus00.iq.FU_type_0::SimdShiftAcc            0      0.00%     85.60% # Type of FU issued
system.switch_cpus00.iq.FU_type_0::SimdSqrt            0      0.00%     85.60% # Type of FU issued
system.switch_cpus00.iq.FU_type_0::SimdFloatAdd            0      0.00%     85.60% # Type of FU issued
system.switch_cpus00.iq.FU_type_0::SimdFloatAlu            0      0.00%     85.60% # Type of FU issued
system.switch_cpus00.iq.FU_type_0::SimdFloatCmp            0      0.00%     85.60% # Type of FU issued
system.switch_cpus00.iq.FU_type_0::SimdFloatCvt            0      0.00%     85.60% # Type of FU issued
system.switch_cpus00.iq.FU_type_0::SimdFloatDiv            0      0.00%     85.60% # Type of FU issued
system.switch_cpus00.iq.FU_type_0::SimdFloatMisc          168      0.01%     85.61% # Type of FU issued
system.switch_cpus00.iq.FU_type_0::SimdFloatMult            0      0.00%     85.61% # Type of FU issued
system.switch_cpus00.iq.FU_type_0::SimdFloatMultAcc            0      0.00%     85.61% # Type of FU issued
system.switch_cpus00.iq.FU_type_0::SimdFloatSqrt            0      0.00%     85.61% # Type of FU issued
system.switch_cpus00.iq.FU_type_0::MemRead       123277      9.08%     94.69% # Type of FU issued
system.switch_cpus00.iq.FU_type_0::MemWrite        72020      5.31%    100.00% # Type of FU issued
system.switch_cpus00.iq.FU_type_0::IprAccess            0      0.00%    100.00% # Type of FU issued
system.switch_cpus00.iq.FU_type_0::InstPrefetch            0      0.00%    100.00% # Type of FU issued
system.switch_cpus00.iq.FU_type_0::total      1357447                       # Type of FU issued
system.switch_cpus00.iq.rate                 0.532657                       # Inst issue rate
system.switch_cpus00.iq.fu_busy_cnt              2462                       # FU busy when requested
system.switch_cpus00.iq.fu_busy_rate         0.001814                       # FU busy rate (busy events/executed inst)
system.switch_cpus00.iq.int_inst_queue_reads      5063989                       # Number of integer instruction queue reads
system.switch_cpus00.iq.int_inst_queue_writes      1619026                       # Number of integer instruction queue writes
system.switch_cpus00.iq.int_inst_queue_wakeup_accesses      1334980                       # Number of integer instruction queue wakeup accesses
system.switch_cpus00.iq.fp_inst_queue_reads            0                       # Number of floating instruction queue reads
system.switch_cpus00.iq.fp_inst_queue_writes            0                       # Number of floating instruction queue writes
system.switch_cpus00.iq.fp_inst_queue_wakeup_accesses            0                       # Number of floating instruction queue wakeup accesses
system.switch_cpus00.iq.int_alu_accesses      1359909                       # Number of integer alu accesses
system.switch_cpus00.iq.fp_alu_accesses             0                       # Number of floating point alu accesses
system.switch_cpus00.iew.lsq.thread0.forwLoads         2601                       # Number of loads that had data forwarded from stores
system.switch_cpus00.iew.lsq.thread0.invAddrLoads            0                       # Number of loads ignored due to an invalid address
system.switch_cpus00.iew.lsq.thread0.squashedLoads        24822                       # Number of loads squashed
system.switch_cpus00.iew.lsq.thread0.ignoredResponses            0                       # Number of memory responses ignored because the instruction is squashed
system.switch_cpus00.iew.lsq.thread0.memOrderViolation           17                       # Number of memory ordering violations
system.switch_cpus00.iew.lsq.thread0.squashedStores         1481                       # Number of stores squashed
system.switch_cpus00.iew.lsq.thread0.invAddrSwpfs            0                       # Number of software prefetches ignored due to an invalid address
system.switch_cpus00.iew.lsq.thread0.blockedLoads            0                       # Number of blocked loads due to partial load-store forwarding
system.switch_cpus00.iew.lsq.thread0.rescheduledLoads            0                       # Number of loads that were rescheduled
system.switch_cpus00.iew.lsq.thread0.cacheBlocked            0                       # Number of times an access to memory failed due to the cache being blocked
system.switch_cpus00.iew.iewIdleCycles              0                       # Number of cycles IEW is idle
system.switch_cpus00.iew.iewSquashCycles        38888                       # Number of cycles IEW is squashing
system.switch_cpus00.iew.iewBlockCycles         10703                       # Number of cycles IEW is blocking
system.switch_cpus00.iew.iewUnblockCycles         1161                       # Number of cycles IEW is unblocking
system.switch_cpus00.iew.iewDispatchedInsts      1440858                       # Number of instructions dispatched to IQ
system.switch_cpus00.iew.iewDispSquashedInsts          640                       # Number of squashed instructions skipped by dispatch
system.switch_cpus00.iew.iewDispLoadInsts       136273                       # Number of dispatched load instructions
system.switch_cpus00.iew.iewDispStoreInsts        72377                       # Number of dispatched store instructions
system.switch_cpus00.iew.iewDispNonSpecInsts          179                       # Number of dispatched non-speculative instructions
system.switch_cpus00.iew.iewIQFullEvents          975                       # Number of times the IQ has become full, causing a stall
system.switch_cpus00.iew.iewLSQFullEvents            0                       # Number of times the LSQ has become full, causing a stall
system.switch_cpus00.iew.memOrderViolationEvents           17                       # Number of memory order violations
system.switch_cpus00.iew.predictedTakenIncorrect        12115                       # Number of branches that were predicted taken incorrectly
system.switch_cpus00.iew.predictedNotTakenIncorrect        13045                       # Number of branches that were predicted not taken incorrectly
system.switch_cpus00.iew.branchMispredicts        25160                       # Number of branch mispredicts detected at execute
system.switch_cpus00.iew.iewExecutedInsts      1337220                       # Number of executed instructions
system.switch_cpus00.iew.iewExecLoadInsts       115699                       # Number of load instructions executed
system.switch_cpus00.iew.iewExecSquashedInsts        20226                       # Number of squashed instructions skipped in execute
system.switch_cpus00.iew.exec_swp                   0                       # number of swp insts executed
system.switch_cpus00.iew.exec_nop                   6                       # number of nop insts executed
system.switch_cpus00.iew.exec_refs             187701                       # number of memory reference insts executed
system.switch_cpus00.iew.exec_branches         189527                       # Number of branches executed
system.switch_cpus00.iew.exec_stores            72002                       # Number of stores executed
system.switch_cpus00.iew.exec_rate           0.524720                       # Inst execution rate
system.switch_cpus00.iew.wb_sent              1335072                       # cumulative count of insts sent to commit
system.switch_cpus00.iew.wb_count             1334980                       # cumulative count of insts written-back
system.switch_cpus00.iew.wb_producers          767841                       # num instructions producing a value
system.switch_cpus00.iew.wb_consumers         2068974                       # num instructions consuming a value
system.switch_cpus00.iew.wb_penalized               0                       # number of instrctions required to write to 'other' IQ
system.switch_cpus00.iew.wb_rate             0.523841                       # insts written-back per cycle
system.switch_cpus00.iew.wb_fanout           0.371122                       # average fanout of values written-back
system.switch_cpus00.iew.wb_penalized_rate            0                       # fraction of instructions written-back that wrote to 'other' IQ
system.switch_cpus00.commit.commitCommittedInsts      1000000                       # The number of committed instructions
system.switch_cpus00.commit.commitCommittedOps      1230442                       # The number of committed instructions
system.switch_cpus00.commit.commitSquashedInsts       210416                       # The number of squashed insts skipped by commit
system.switch_cpus00.commit.commitNonSpecStalls          341                       # The number of times commit has been forced to stall to communicate backwards
system.switch_cpus00.commit.branchMispredicts        22255                       # The number of times a branch was mispredicted
system.switch_cpus00.commit.committed_per_cycle::samples      2307433                       # Number of insts commited each cycle
system.switch_cpus00.commit.committed_per_cycle::mean     0.533251                       # Number of insts commited each cycle
system.switch_cpus00.commit.committed_per_cycle::stdev     1.382106                       # Number of insts commited each cycle
system.switch_cpus00.commit.committed_per_cycle::underflows            0      0.00%      0.00% # Number of insts commited each cycle
system.switch_cpus00.commit.committed_per_cycle::0      1803085     78.14%     78.14% # Number of insts commited each cycle
system.switch_cpus00.commit.committed_per_cycle::1       249989     10.83%     88.98% # Number of insts commited each cycle
system.switch_cpus00.commit.committed_per_cycle::2        94492      4.10%     93.07% # Number of insts commited each cycle
system.switch_cpus00.commit.committed_per_cycle::3        44711      1.94%     95.01% # Number of insts commited each cycle
system.switch_cpus00.commit.committed_per_cycle::4        37591      1.63%     96.64% # Number of insts commited each cycle
system.switch_cpus00.commit.committed_per_cycle::5        22002      0.95%     97.59% # Number of insts commited each cycle
system.switch_cpus00.commit.committed_per_cycle::6        19532      0.85%     98.44% # Number of insts commited each cycle
system.switch_cpus00.commit.committed_per_cycle::7         8478      0.37%     98.81% # Number of insts commited each cycle
system.switch_cpus00.commit.committed_per_cycle::8        27553      1.19%    100.00% # Number of insts commited each cycle
system.switch_cpus00.commit.committed_per_cycle::overflows            0      0.00%    100.00% # Number of insts commited each cycle
system.switch_cpus00.commit.committed_per_cycle::min_value            0                       # Number of insts commited each cycle
system.switch_cpus00.commit.committed_per_cycle::max_value            8                       # Number of insts commited each cycle
system.switch_cpus00.commit.committed_per_cycle::total      2307433                       # Number of insts commited each cycle
system.switch_cpus00.commit.committedInsts      1000000                       # Number of instructions committed
system.switch_cpus00.commit.committedOps      1230442                       # Number of ops (including micro ops) committed
system.switch_cpus00.commit.swp_count               0                       # Number of s/w prefetches committed
system.switch_cpus00.commit.refs               182347                       # Number of memory references committed
system.switch_cpus00.commit.loads              111451                       # Number of loads committed
system.switch_cpus00.commit.membars               170                       # Number of memory barriers committed
system.switch_cpus00.commit.branches           177388                       # Number of branches committed
system.switch_cpus00.commit.fp_insts                0                       # Number of committed floating point instructions.
system.switch_cpus00.commit.int_insts         1108626                       # Number of committed integer instructions.
system.switch_cpus00.commit.function_calls        25333                       # Number of function calls committed.
system.switch_cpus00.commit.bw_lim_events        27553                       # number cycles where commit BW limit reached
system.switch_cpus00.commit.bw_limited              0                       # number of insts not committed due to BW limits
system.switch_cpus00.rob.rob_reads            3720725                       # The number of ROB reads
system.switch_cpus00.rob.rob_writes           2920616                       # The number of ROB writes
system.switch_cpus00.timesIdled                 32378                       # Number of times that the entire CPU went into an idle state and unscheduled itself
system.switch_cpus00.idleCycles                202126                       # Total number of cycles that the CPU has spent unscheduled due to idling
system.switch_cpus00.committedInsts           1000000                       # Number of Instructions Simulated
system.switch_cpus00.committedOps             1230442                       # Number of Ops (including micro ops) Simulated
system.switch_cpus00.committedInsts_total      1000000                       # Number of Instructions Simulated
system.switch_cpus00.cpi                     2.548447                       # CPI: Cycles Per Instruction
system.switch_cpus00.cpi_total               2.548447                       # CPI: Total CPI of All Threads
system.switch_cpus00.ipc                     0.392396                       # IPC: Instructions Per Cycle
system.switch_cpus00.ipc_total               0.392396                       # IPC: Total IPC of All Threads
system.switch_cpus00.int_regfile_reads        6016557                       # number of integer regfile reads
system.switch_cpus00.int_regfile_writes       1861546                       # number of integer regfile writes
system.switch_cpus00.misc_regfile_reads       1338845                       # number of misc regfile reads
system.switch_cpus00.misc_regfile_writes          340                       # number of misc regfile writes
system.switch_cpus01.dtb.inst_hits                  0                       # ITB inst hits
system.switch_cpus01.dtb.inst_misses                0                       # ITB inst misses
system.switch_cpus01.dtb.read_hits                  0                       # DTB read hits
system.switch_cpus01.dtb.read_misses                0                       # DTB read misses
system.switch_cpus01.dtb.write_hits                 0                       # DTB write hits
system.switch_cpus01.dtb.write_misses               0                       # DTB write misses
system.switch_cpus01.dtb.flush_tlb                  0                       # Number of times complete TLB was flushed
system.switch_cpus01.dtb.flush_tlb_mva              0                       # Number of times TLB was flushed by MVA
system.switch_cpus01.dtb.flush_tlb_mva_asid            0                       # Number of times TLB was flushed by MVA & ASID
system.switch_cpus01.dtb.flush_tlb_asid             0                       # Number of times TLB was flushed by ASID
system.switch_cpus01.dtb.flush_entries              0                       # Number of entries that have been flushed from TLB
system.switch_cpus01.dtb.align_faults               0                       # Number of TLB faults due to alignment restrictions
system.switch_cpus01.dtb.prefetch_faults            0                       # Number of TLB faults due to prefetch
system.switch_cpus01.dtb.domain_faults              0                       # Number of TLB faults due to domain restrictions
system.switch_cpus01.dtb.perms_faults               0                       # Number of TLB faults due to permissions restrictions
system.switch_cpus01.dtb.read_accesses              0                       # DTB read accesses
system.switch_cpus01.dtb.write_accesses             0                       # DTB write accesses
system.switch_cpus01.dtb.inst_accesses              0                       # ITB inst accesses
system.switch_cpus01.dtb.hits                       0                       # DTB hits
system.switch_cpus01.dtb.misses                     0                       # DTB misses
system.switch_cpus01.dtb.accesses                   0                       # DTB accesses
system.switch_cpus01.itb.inst_hits                  0                       # ITB inst hits
[...]
system.cpu15.icache.demand_avg_miss_latency::total 151338.900000                       # average overall miss latency
system.cpu15.icache.overall_avg_miss_latency::switch_cpus15.inst 151338.900000                       # average overall miss latency
system.cpu15.icache.overall_avg_miss_latency::total 151338.900000                       # average overall miss latency
system.cpu15.icache.blocked_cycles::no_mshrs            0                       # number of cycles access was blocked
system.cpu15.icache.blocked_cycles::no_targets            0                       # number of cycles access was blocked
system.cpu15.icache.blocked::no_mshrs               0                       # number of cycles access was blocked
system.cpu15.icache.blocked::no_targets             0                       # number of cycles access was blocked
system.cpu15.icache.avg_blocked_cycles::no_mshrs          nan                       # average number of cycles each access was blocked
system.cpu15.icache.avg_blocked_cycles::no_targets          nan                       # average number of cycles each access was blocked
system.cpu15.icache.fast_writes                     0                       # number of fast writes performed
system.cpu15.icache.cache_copies                    0                       # number of cache copies performed
system.cpu15.icache.ReadReq_mshr_hits::switch_cpus15.inst            5                       # number of ReadReq MSHR hits
system.cpu15.icache.ReadReq_mshr_hits::total            5                       # number of ReadReq MSHR hits
system.cpu15.icache.demand_mshr_hits::switch_cpus15.inst            5                       # number of demand (read+write) MSHR hits
system.cpu15.icache.demand_mshr_hits::total            5                       # number of demand (read+write) MSHR hits
system.cpu15.icache.overall_mshr_hits::switch_cpus15.inst            5                       # number of overall MSHR hits
system.cpu15.icache.overall_mshr_hits::total            5                       # number of overall MSHR hits
system.cpu15.icache.ReadReq_mshr_misses::switch_cpus15.inst           25                       # number of ReadReq MSHR misses
system.cpu15.icache.ReadReq_mshr_misses::total           25                       # number of ReadReq MSHR misses
system.cpu15.icache.demand_mshr_misses::switch_cpus15.inst           25                       # number of demand (read+write) MSHR misses
system.cpu15.icache.demand_mshr_misses::total           25                       # number of demand (read+write) MSHR misses
system.cpu15.icache.overall_mshr_misses::switch_cpus15.inst           25                       # number of overall MSHR misses
system.cpu15.icache.overall_mshr_misses::total           25                       # number of overall MSHR misses
system.cpu15.icache.ReadReq_mshr_miss_latency::switch_cpus15.inst      3863600                       # number of ReadReq MSHR miss cycles
system.cpu15.icache.ReadReq_mshr_miss_latency::total      3863600                       # number of ReadReq MSHR miss cycles
system.cpu15.icache.demand_mshr_miss_latency::switch_cpus15.inst      3863600                       # number of demand (read+write) MSHR miss cycles
system.cpu15.icache.demand_mshr_miss_latency::total      3863600                       # number of demand (read+write) MSHR miss cycles
system.cpu15.icache.overall_mshr_miss_latency::switch_cpus15.inst      3863600                       # number of overall MSHR miss cycles
system.cpu15.icache.overall_mshr_miss_latency::total      3863600                       # number of overall MSHR miss cycles
system.cpu15.icache.ReadReq_mshr_miss_rate::switch_cpus15.inst     0.000208                       # mshr miss rate for ReadReq accesses
system.cpu15.icache.ReadReq_mshr_miss_rate::total     0.000208                       # mshr miss rate for ReadReq accesses
system.cpu15.icache.demand_mshr_miss_rate::switch_cpus15.inst     0.000208                       # mshr miss rate for demand accesses
system.cpu15.icache.demand_mshr_miss_rate::total     0.000208                       # mshr miss rate for demand accesses
system.cpu15.icache.overall_mshr_miss_rate::switch_cpus15.inst     0.000208                       # mshr miss rate for overall accesses
system.cpu15.icache.overall_mshr_miss_rate::total     0.000208                       # mshr miss rate for overall accesses
system.cpu15.icache.ReadReq_avg_mshr_miss_latency::switch_cpus15.inst       154544                       # average ReadReq mshr miss latency
system.cpu15.icache.ReadReq_avg_mshr_miss_latency::total       154544                       # average ReadReq mshr miss latency
system.cpu15.icache.demand_avg_mshr_miss_latency::switch_cpus15.inst       154544                       # average overall mshr miss latency
system.cpu15.icache.demand_avg_mshr_miss_latency::total       154544                       # average overall mshr miss latency
system.cpu15.icache.overall_avg_mshr_miss_latency::switch_cpus15.inst       154544                       # average overall mshr miss latency
system.cpu15.icache.overall_avg_mshr_miss_latency::total       154544                       # average overall mshr miss latency
system.cpu15.icache.no_allocate_misses              0                       # Number of misses that were no-allocate
system.cpu15.dcache.replacements                 1135                       # number of replacements
system.cpu15.dcache.tagsinuse                     256                       # Cycle average of tags in use
system.cpu15.dcache.total_refs              125626377                       # Total number of references to valid blocks.
system.cpu15.dcache.sampled_refs                 1391                       # Sample count of references to valid blocks.
system.cpu15.dcache.avg_refs             90313.714594                       # Average number of references to valid blocks.
system.cpu15.dcache.warmup_cycle                    0                       # Cycle when the warmup percentage was hit.
system.cpu15.dcache.occ_blocks::switch_cpus15.data   190.243597                       # Average occupied blocks per requestor
system.cpu15.dcache.occ_blocks::cpu15.data    65.756403                       # Average occupied blocks per requestor
system.cpu15.dcache.occ_percent::switch_cpus15.data     0.743139                       # Average percentage of cache occupancy
system.cpu15.dcache.occ_percent::cpu15.data     0.256861                       # Average percentage of cache occupancy
system.cpu15.dcache.occ_percent::total              1                       # Average percentage of cache occupancy
system.cpu15.dcache.ReadReq_hits::switch_cpus15.data        91162                       # number of ReadReq hits
system.cpu15.dcache.ReadReq_hits::total         91162                       # number of ReadReq hits
system.cpu15.dcache.WriteReq_hits::switch_cpus15.data        73338                       # number of WriteReq hits
system.cpu15.dcache.WriteReq_hits::total        73338                       # number of WriteReq hits
system.cpu15.dcache.LoadLockedReq_hits::switch_cpus15.data          151                       # number of LoadLockedReq hits
system.cpu15.dcache.LoadLockedReq_hits::total          151                       # number of LoadLockedReq hits
system.cpu15.dcache.StoreCondReq_hits::switch_cpus15.data          148                       # number of StoreCondReq hits
system.cpu15.dcache.StoreCondReq_hits::total          148                       # number of StoreCondReq hits
system.cpu15.dcache.demand_hits::switch_cpus15.data       164500                       # number of demand (read+write) hits
system.cpu15.dcache.demand_hits::total         164500                       # number of demand (read+write) hits
system.cpu15.dcache.overall_hits::switch_cpus15.data       164500                       # number of overall hits
system.cpu15.dcache.overall_hits::total        164500                       # number of overall hits
system.cpu15.dcache.ReadReq_misses::switch_cpus15.data         2555                       # number of ReadReq misses
system.cpu15.dcache.ReadReq_misses::total         2555                       # number of ReadReq misses
system.cpu15.dcache.WriteReq_misses::switch_cpus15.data          480                       # number of WriteReq misses
system.cpu15.dcache.WriteReq_misses::total          480                       # number of WriteReq misses
system.cpu15.dcache.demand_misses::switch_cpus15.data         3035                       # number of demand (read+write) misses
system.cpu15.dcache.demand_misses::total         3035                       # number of demand (read+write) misses
system.cpu15.dcache.overall_misses::switch_cpus15.data         3035                       # number of overall misses
system.cpu15.dcache.overall_misses::total         3035                       # number of overall misses
system.cpu15.dcache.ReadReq_miss_latency::switch_cpus15.data    325491806                       # number of ReadReq miss cycles
system.cpu15.dcache.ReadReq_miss_latency::total    325491806                       # number of ReadReq miss cycles
system.cpu15.dcache.WriteReq_miss_latency::switch_cpus15.data     86191649                       # number of WriteReq miss cycles
system.cpu15.dcache.WriteReq_miss_latency::total     86191649                       # number of WriteReq miss cycles
system.cpu15.dcache.demand_miss_latency::switch_cpus15.data    411683455                       # number of demand (read+write) miss cycles
system.cpu15.dcache.demand_miss_latency::total    411683455                       # number of demand (read+write) miss cycles
system.cpu15.dcache.overall_miss_latency::switch_cpus15.data    411683455                       # number of overall miss cycles
system.cpu15.dcache.overall_miss_latency::total    411683455                       # number of overall miss cycles
system.cpu15.dcache.ReadReq_accesses::switch_cpus15.data        93717                       # number of ReadReq accesses(hits+misses)
system.cpu15.dcache.ReadReq_accesses::total        93717                       # number of ReadReq accesses(hits+misses)
system.cpu15.dcache.WriteReq_accesses::switch_cpus15.data        73818                       # number of WriteReq accesses(hits+misses)
system.cpu15.dcache.WriteReq_accesses::total        73818                       # number of WriteReq accesses(hits+misses)
system.cpu15.dcache.LoadLockedReq_accesses::switch_cpus15.data          151                       # number of LoadLockedReq accesses(hits+misses)
system.cpu15.dcache.LoadLockedReq_accesses::total          151                       # number of LoadLockedReq accesses(hits+misses)
system.cpu15.dcache.StoreCondReq_accesses::switch_cpus15.data          148                       # number of StoreCondReq accesses(hits+misses)
system.cpu15.dcache.StoreCondReq_accesses::total          148                       # number of StoreCondReq accesses(hits+misses)
system.cpu15.dcache.demand_accesses::switch_cpus15.data       167535                       # number of demand (read+write) accesses
system.cpu15.dcache.demand_accesses::total       167535                       # number of demand (read+write) accesses
system.cpu15.dcache.overall_accesses::switch_cpus15.data       167535                       # number of overall (read+write) accesses
system.cpu15.dcache.overall_accesses::total       167535                       # number of overall (read+write) accesses
system.cpu15.dcache.ReadReq_miss_rate::switch_cpus15.data     0.027263                       # miss rate for ReadReq accesses
system.cpu15.dcache.ReadReq_miss_rate::total     0.027263                       # miss rate for ReadReq accesses
system.cpu15.dcache.WriteReq_miss_rate::switch_cpus15.data     0.006502                       # miss rate for WriteReq accesses
system.cpu15.dcache.WriteReq_miss_rate::total     0.006502                       # miss rate for WriteReq accesses
system.cpu15.dcache.demand_miss_rate::switch_cpus15.data     0.018116                       # miss rate for demand accesses
system.cpu15.dcache.demand_miss_rate::total     0.018116                       # miss rate for demand accesses
system.cpu15.dcache.overall_miss_rate::switch_cpus15.data     0.018116                       # miss rate for overall accesses
system.cpu15.dcache.overall_miss_rate::total     0.018116                       # miss rate for overall accesses
system.cpu15.dcache.ReadReq_avg_miss_latency::switch_cpus15.data 127394.053229                       # average ReadReq miss latency
system.cpu15.dcache.ReadReq_avg_miss_latency::total 127394.053229                       # average ReadReq miss latency
system.cpu15.dcache.WriteReq_avg_miss_latency::switch_cpus15.data 179565.935417                       # average WriteReq miss latency
system.cpu15.dcache.WriteReq_avg_miss_latency::total 179565.935417                       # average WriteReq miss latency
system.cpu15.dcache.demand_avg_miss_latency::switch_cpus15.data 135645.289951                       # average overall miss latency
system.cpu15.dcache.demand_avg_miss_latency::total 135645.289951                       # average overall miss latency
system.cpu15.dcache.overall_avg_miss_latency::switch_cpus15.data 135645.289951                       # average overall miss latency
system.cpu15.dcache.overall_avg_miss_latency::total 135645.289951                       # average overall miss latency
system.cpu15.dcache.blocked_cycles::no_mshrs            0                       # number of cycles access was blocked
system.cpu15.dcache.blocked_cycles::no_targets            0                       # number of cycles access was blocked
system.cpu15.dcache.blocked::no_mshrs               0                       # number of cycles access was blocked
system.cpu15.dcache.blocked::no_targets             0                       # number of cycles access was blocked
system.cpu15.dcache.avg_blocked_cycles::no_mshrs          nan                       # average number of cycles each access was blocked
system.cpu15.dcache.avg_blocked_cycles::no_targets          nan                       # average number of cycles each access was blocked
system.cpu15.dcache.fast_writes                     0                       # number of fast writes performed
system.cpu15.dcache.cache_copies                    0                       # number of cache copies performed
system.cpu15.dcache.writebacks::writebacks          528                       # number of writebacks
system.cpu15.dcache.writebacks::total             528                       # number of writebacks
system.cpu15.dcache.ReadReq_mshr_hits::switch_cpus15.data         1485                       # number of ReadReq MSHR hits
system.cpu15.dcache.ReadReq_mshr_hits::total         1485                       # number of ReadReq MSHR hits
system.cpu15.dcache.WriteReq_mshr_hits::switch_cpus15.data          415                       # number of WriteReq MSHR hits
system.cpu15.dcache.WriteReq_mshr_hits::total          415                       # number of WriteReq MSHR hits
system.cpu15.dcache.demand_mshr_hits::switch_cpus15.data         1900                       # number of demand (read+write) MSHR hits
system.cpu15.dcache.demand_mshr_hits::total         1900                       # number of demand (read+write) MSHR hits
system.cpu15.dcache.overall_mshr_hits::switch_cpus15.data         1900                       # number of overall MSHR hits
system.cpu15.dcache.overall_mshr_hits::total         1900                       # number of overall MSHR hits
system.cpu15.dcache.ReadReq_mshr_misses::switch_cpus15.data         1070                       # number of ReadReq MSHR misses
system.cpu15.dcache.ReadReq_mshr_misses::total         1070                       # number of ReadReq MSHR misses
system.cpu15.dcache.WriteReq_mshr_misses::switch_cpus15.data           65                       # number of WriteReq MSHR misses
system.cpu15.dcache.WriteReq_mshr_misses::total           65                       # number of WriteReq MSHR misses
system.cpu15.dcache.demand_mshr_misses::switch_cpus15.data         1135                       # number of demand (read+write) MSHR misses
system.cpu15.dcache.demand_mshr_misses::total         1135                       # number of demand (read+write) MSHR misses
system.cpu15.dcache.overall_mshr_misses::switch_cpus15.data         1135                       # number of overall MSHR misses
system.cpu15.dcache.overall_mshr_misses::total         1135                       # number of overall MSHR misses
system.cpu15.dcache.ReadReq_mshr_miss_latency::switch_cpus15.data    121366419                       # number of ReadReq MSHR miss cycles
system.cpu15.dcache.ReadReq_mshr_miss_latency::total    121366419                       # number of ReadReq MSHR miss cycles
system.cpu15.dcache.WriteReq_mshr_miss_latency::switch_cpus15.data     10317586                       # number of WriteReq MSHR miss cycles
system.cpu15.dcache.WriteReq_mshr_miss_latency::total     10317586                       # number of WriteReq MSHR miss cycles
system.cpu15.dcache.demand_mshr_miss_latency::switch_cpus15.data    131684005                       # number of demand (read+write) MSHR miss cycles
system.cpu15.dcache.demand_mshr_miss_latency::total    131684005                       # number of demand (read+write) MSHR miss cycles
system.cpu15.dcache.overall_mshr_miss_latency::switch_cpus15.data    131684005                       # number of overall MSHR miss cycles
system.cpu15.dcache.overall_mshr_miss_latency::total    131684005                       # number of overall MSHR miss cycles
system.cpu15.dcache.ReadReq_mshr_miss_rate::switch_cpus15.data     0.011417                       # mshr miss rate for ReadReq accesses
system.cpu15.dcache.ReadReq_mshr_miss_rate::total     0.011417                       # mshr miss rate for ReadReq accesses
system.cpu15.dcache.WriteReq_mshr_miss_rate::switch_cpus15.data     0.000881                       # mshr miss rate for WriteReq accesses
system.cpu15.dcache.WriteReq_mshr_miss_rate::total     0.000881                       # mshr miss rate for WriteReq accesses
system.cpu15.dcache.demand_mshr_miss_rate::switch_cpus15.data     0.006775                       # mshr miss rate for demand accesses
system.cpu15.dcache.demand_mshr_miss_rate::total     0.006775                       # mshr miss rate for demand accesses
system.cpu15.dcache.overall_mshr_miss_rate::switch_cpus15.data     0.006775                       # mshr miss rate for overall accesses
system.cpu15.dcache.overall_mshr_miss_rate::total     0.006775                       # mshr miss rate for overall accesses
system.cpu15.dcache.ReadReq_avg_mshr_miss_latency::switch_cpus15.data 113426.559813                       # average ReadReq mshr miss latency
system.cpu15.dcache.ReadReq_avg_mshr_miss_latency::total 113426.559813                       # average ReadReq mshr miss latency
system.cpu15.dcache.WriteReq_avg_mshr_miss_latency::switch_cpus15.data 158732.092308                       # average WriteReq mshr miss latency
system.cpu15.dcache.WriteReq_avg_mshr_miss_latency::total 158732.092308                       # average WriteReq mshr miss latency
system.cpu15.dcache.demand_avg_mshr_miss_latency::switch_cpus15.data 116021.149780                       # average overall mshr miss latency
system.cpu15.dcache.demand_avg_mshr_miss_latency::total 116021.149780                       # average overall mshr miss latency
system.cpu15.dcache.overall_avg_mshr_miss_latency::switch_cpus15.data 116021.149780                       # average overall mshr miss latency
system.cpu15.dcache.overall_avg_mshr_miss_latency::total 116021.149780                       # average overall mshr miss latency
system.cpu15.dcache.no_allocate_misses              0                       # Number of misses that were no-allocate

---------- End Simulation Statistics   ----------
