
---------- Begin Simulation Statistics ----------
sim_seconds                                  0.012376                       # Number of seconds simulated
sim_ticks                                 12375788550                       # Number of ticks simulated
final_tick                               577674220377                       # Number of ticks from beginning of simulation (restored from checkpoints and never reset)
sim_freq                                 1000000000000                       # Frequency of simulated ticks
host_inst_rate                                 189810                       # Simulator instruction rate (inst/s)
host_op_rate                                   242438                       # Simulator op (including micro ops) rate (op/s)
host_tick_rate                                 273904                       # Simulator tick rate (ticks/s)
host_mem_usage                               67380816                       # Number of bytes of host memory used
host_seconds                                 45182.95                       # Real time elapsed on the host
sim_insts                                  8576161498                       # Number of instructions simulated
sim_ops                                   10954040924                       # Number of ops (including micro ops) simulated
system.physmem.bytes_read::switch_cpus0.inst         4224                       # Number of bytes read from this memory
system.physmem.bytes_read::switch_cpus0.data       197888                       # Number of bytes read from this memory
system.physmem.bytes_read::switch_cpus1.inst         4480                       # Number of bytes read from this memory
system.physmem.bytes_read::switch_cpus1.data        99584                       # Number of bytes read from this memory
system.physmem.bytes_read::switch_cpus2.inst         4480                       # Number of bytes read from this memory
system.physmem.bytes_read::switch_cpus2.data        99584                       # Number of bytes read from this memory
system.physmem.bytes_read::switch_cpus3.inst         3840                       # Number of bytes read from this memory
system.physmem.bytes_read::switch_cpus3.data       198144                       # Number of bytes read from this memory
system.physmem.bytes_read::switch_cpus4.inst         4480                       # Number of bytes read from this memory
system.physmem.bytes_read::switch_cpus4.data       409856                       # Number of bytes read from this memory
system.physmem.bytes_read::switch_cpus5.inst         5504                       # Number of bytes read from this memory
system.physmem.bytes_read::switch_cpus5.data       123776                       # Number of bytes read from this memory
system.physmem.bytes_read::switch_cpus6.inst         4480                       # Number of bytes read from this memory
system.physmem.bytes_read::switch_cpus6.data       338560                       # Number of bytes read from this memory
system.physmem.bytes_read::switch_cpus7.inst         5504                       # Number of bytes read from this memory
system.physmem.bytes_read::switch_cpus7.data       123648                       # Number of bytes read from this memory
system.physmem.bytes_read::total              1628032                       # Number of bytes read from this memory
system.physmem.bytes_inst_read::switch_cpus0.inst         4224                       # Number of instructions bytes read from this memory
system.physmem.bytes_inst_read::switch_cpus1.inst         4480                       # Number of instructions bytes read from this memory
system.physmem.bytes_inst_read::switch_cpus2.inst         4480                       # Number of instructions bytes read from this memory
system.physmem.bytes_inst_read::switch_cpus3.inst         3840                       # Number of instructions bytes read from this memory
system.physmem.bytes_inst_read::switch_cpus4.inst         4480                       # Number of instructions bytes read from this memory
system.physmem.bytes_inst_read::switch_cpus5.inst         5504                       # Number of instructions bytes read from this memory
system.physmem.bytes_inst_read::switch_cpus6.inst         4480                       # Number of instructions bytes read from this memory
system.physmem.bytes_inst_read::switch_cpus7.inst         5504                       # Number of instructions bytes read from this memory
system.physmem.bytes_inst_read::total           36992                       # Number of instructions bytes read from this memory
system.physmem.bytes_written::writebacks       470912                       # Number of bytes written to this memory
system.physmem.bytes_written::total            470912                       # Number of bytes written to this memory
system.physmem.num_reads::switch_cpus0.inst           33                       # Number of read requests responded to by this memory
system.physmem.num_reads::switch_cpus0.data         1546                       # Number of read requests responded to by this memory
system.physmem.num_reads::switch_cpus1.inst           35                       # Number of read requests responded to by this memory
system.physmem.num_reads::switch_cpus1.data          778                       # Number of read requests responded to by this memory
system.physmem.num_reads::switch_cpus2.inst           35                       # Number of read requests responded to by this memory
system.physmem.num_reads::switch_cpus2.data          778                       # Number of read requests responded to by this memory
system.physmem.num_reads::switch_cpus3.inst           30                       # Number of read requests responded to by this memory
system.physmem.num_reads::switch_cpus3.data         1548                       # Number of read requests responded to by this memory
system.physmem.num_reads::switch_cpus4.inst           35                       # Number of read requests responded to by this memory
system.physmem.num_reads::switch_cpus4.data         3202                       # Number of read requests responded to by this memory
system.physmem.num_reads::switch_cpus5.inst           43                       # Number of read requests responded to by this memory
system.physmem.num_reads::switch_cpus5.data          967                       # Number of read requests responded to by this memory
system.physmem.num_reads::switch_cpus6.inst           35                       # Number of read requests responded to by this memory
system.physmem.num_reads::switch_cpus6.data         2645                       # Number of read requests responded to by this memory
system.physmem.num_reads::switch_cpus7.inst           43                       # Number of read requests responded to by this memory
system.physmem.num_reads::switch_cpus7.data          966                       # Number of read requests responded to by this memory
system.physmem.num_reads::total                 12719                       # Number of read requests responded to by this memory
system.physmem.num_writes::writebacks            3679                       # Number of write requests responded to by this memory
system.physmem.num_writes::functional               0                       # Number of write requests responded to by this memory
system.physmem.num_writes::interrupt                0                       # Number of write requests responded to by this memory
system.physmem.num_writes::switch_cpus0.dtb.walker            0                       # Number of write requests responded to by this memory
system.physmem.num_writes::switch_cpus0.itb.walker            0                       # Number of write requests responded to by this memory
system.physmem.num_writes::switch_cpus0.inst            0                       # Number of write requests responded to by this memory
system.physmem.num_writes::switch_cpus0.data            0                       # Number of write requests responded to by this memory
system.physmem.num_writes::switch_cpus1.dtb.walker            0                       # Number of write requests responded to by this memory
system.physmem.num_writes::switch_cpus1.itb.walker            0                       # Number of write requests responded to by this memory
system.physmem.num_writes::switch_cpus1.inst            0                       # Number of write requests responded to by this memory
system.physmem.num_writes::switch_cpus1.data            0                       # Number of write requests responded to by this memory
system.physmem.num_writes::switch_cpus2.dtb.walker            0                       # Number of write requests responded to by this memory
system.physmem.num_writes::switch_cpus2.itb.walker            0                       # Number of write requests responded to by this memory
system.physmem.num_writes::switch_cpus2.inst            0                       # Number of write requests responded to by this memory
system.physmem.num_writes::switch_cpus2.data            0                       # Number of write requests responded to by this memory
system.physmem.num_writes::switch_cpus3.dtb.walker            0                       # Number of write requests responded to by this memory
system.physmem.num_writes::switch_cpus3.itb.walker            0                       # Number of write requests responded to by this memory
system.physmem.num_writes::switch_cpus3.inst            0                       # Number of write requests responded to by this memory
system.physmem.num_writes::switch_cpus3.data            0                       # Number of write requests responded to by this memory
system.physmem.num_writes::switch_cpus4.dtb.walker            0                       # Number of write requests responded to by this memory
system.physmem.num_writes::switch_cpus4.itb.walker            0                       # Number of write requests responded to by this memory
system.physmem.num_writes::switch_cpus4.inst            0                       # Number of write requests responded to by this memory
system.physmem.num_writes::switch_cpus4.data            0                       # Number of write requests responded to by this memory
system.physmem.num_writes::switch_cpus5.dtb.walker            0                       # Number of write requests responded to by this memory
system.physmem.num_writes::switch_cpus5.itb.walker            0                       # Number of write requests responded to by this memory
system.physmem.num_writes::switch_cpus5.inst            0                       # Number of write requests responded to by this memory
system.physmem.num_writes::switch_cpus5.data            0                       # Number of write requests responded to by this memory
system.physmem.num_writes::switch_cpus6.dtb.walker            0                       # Number of write requests responded to by this memory
system.physmem.num_writes::switch_cpus6.itb.walker            0                       # Number of write requests responded to by this memory
system.physmem.num_writes::switch_cpus6.inst            0                       # Number of write requests responded to by this memory
system.physmem.num_writes::switch_cpus6.data            0                       # Number of write requests responded to by this memory
system.physmem.num_writes::switch_cpus7.dtb.walker            0                       # Number of write requests responded to by this memory
system.physmem.num_writes::switch_cpus7.itb.walker            0                       # Number of write requests responded to by this memory
system.physmem.num_writes::switch_cpus7.inst            0                       # Number of write requests responded to by this memory
system.physmem.num_writes::switch_cpus7.data            0                       # Number of write requests responded to by this memory
system.physmem.num_writes::cpu0.dtb.walker            0                       # Number of write requests responded to by this memory
system.physmem.num_writes::cpu0.itb.walker            0                       # Number of write requests responded to by this memory
system.physmem.num_writes::cpu0.inst                0                       # Number of write requests responded to by this memory
system.physmem.num_writes::cpu0.data                0                       # Number of write requests responded to by this memory
system.physmem.num_writes::cpu1.dtb.walker            0                       # Number of write requests responded to by this memory
system.physmem.num_writes::cpu1.itb.walker            0                       # Number of write requests responded to by this memory
system.physmem.num_writes::cpu1.inst                0                       # Number of write requests responded to by this memory
system.physmem.num_writes::cpu1.data                0                       # Number of write requests responded to by this memory
system.physmem.num_writes::cpu2.dtb.walker            0                       # Number of write requests responded to by this memory
system.physmem.num_writes::cpu2.itb.walker            0                       # Number of write requests responded to by this memory
system.physmem.num_writes::cpu2.inst                0                       # Number of write requests responded to by this memory
system.physmem.num_writes::cpu2.data                0                       # Number of write requests responded to by this memory
system.physmem.num_writes::cpu3.dtb.walker            0                       # Number of write requests responded to by this memory
system.physmem.num_writes::cpu3.itb.walker            0                       # Number of write requests responded to by this memory
system.physmem.num_writes::cpu3.inst                0                       # Number of write requests responded to by this memory
system.physmem.num_writes::cpu3.data                0                       # Number of write requests responded to by this memory
system.physmem.num_writes::cpu4.dtb.walker            0                       # Number of write requests responded to by this memory
system.physmem.num_writes::cpu4.itb.walker            0                       # Number of write requests responded to by this memory
system.physmem.num_writes::cpu4.inst                0                       # Number of write requests responded to by this memory
system.physmem.num_writes::cpu4.data                0                       # Number of write requests responded to by this memory
system.physmem.num_writes::cpu5.dtb.walker            0                       # Number of write requests responded to by this memory
system.physmem.num_writes::cpu5.itb.walker            0                       # Number of write requests responded to by this memory
system.physmem.num_writes::cpu5.inst                0                       # Number of write requests responded to by this memory
system.physmem.num_writes::cpu5.data                0                       # Number of write requests responded to by this memory
system.physmem.num_writes::cpu6.dtb.walker            0                       # Number of write requests responded to by this memory
system.physmem.num_writes::cpu6.itb.walker            0                       # Number of write requests responded to by this memory
system.physmem.num_writes::cpu6.inst                0                       # Number of write requests responded to by this memory
system.physmem.num_writes::cpu6.data                0                       # Number of write requests responded to by this memory
system.physmem.num_writes::cpu7.dtb.walker            0                       # Number of write requests responded to by this memory
system.physmem.num_writes::cpu7.itb.walker            0                       # Number of write requests responded to by this memory
system.physmem.num_writes::cpu7.inst                0                       # Number of write requests responded to by this memory
system.physmem.num_writes::cpu7.data                0                       # Number of write requests responded to by this memory
system.physmem.num_writes::total                 3679                       # Number of write requests responded to by this memory
system.physmem.bw_read::switch_cpus0.inst       341312                       # Total read bandwidth from this memory (bytes/s)
system.physmem.bw_read::switch_cpus0.data     15989931                       # Total read bandwidth from this memory (bytes/s)
system.physmem.bw_read::switch_cpus1.inst       361997                       # Total read bandwidth from this memory (bytes/s)
system.physmem.bw_read::switch_cpus1.data      8046679                       # Total read bandwidth from this memory (bytes/s)
system.physmem.bw_read::switch_cpus2.inst       361997                       # Total read bandwidth from this memory (bytes/s)
system.physmem.bw_read::switch_cpus2.data      8046679                       # Total read bandwidth from this memory (bytes/s)
system.physmem.bw_read::switch_cpus3.inst       310283                       # Total read bandwidth from this memory (bytes/s)
system.physmem.bw_read::switch_cpus3.data     16010616                       # Total read bandwidth from this memory (bytes/s)
system.physmem.bw_read::switch_cpus4.inst       361997                       # Total read bandwidth from this memory (bytes/s)
system.physmem.bw_read::switch_cpus4.data     33117566                       # Total read bandwidth from this memory (bytes/s)
system.physmem.bw_read::switch_cpus5.inst       444739                       # Total read bandwidth from this memory (bytes/s)
system.physmem.bw_read::switch_cpus5.data     10001464                       # Total read bandwidth from this memory (bytes/s)
system.physmem.bw_read::switch_cpus6.inst       361997                       # Total read bandwidth from this memory (bytes/s)
system.physmem.bw_read::switch_cpus6.data     27356641                       # Total read bandwidth from this memory (bytes/s)
system.physmem.bw_read::switch_cpus7.inst       444739                       # Total read bandwidth from this memory (bytes/s)
system.physmem.bw_read::switch_cpus7.data      9991121                       # Total read bandwidth from this memory (bytes/s)
system.physmem.bw_read::total               131549759                       # Total read bandwidth from this memory (bytes/s)
system.physmem.bw_inst_read::switch_cpus0.inst       341312                       # Instruction read bandwidth from this memory (bytes/s)
system.physmem.bw_inst_read::switch_cpus1.inst       361997                       # Instruction read bandwidth from this memory (bytes/s)
system.physmem.bw_inst_read::switch_cpus2.inst       361997                       # Instruction read bandwidth from this memory (bytes/s)
system.physmem.bw_inst_read::switch_cpus3.inst       310283                       # Instruction read bandwidth from this memory (bytes/s)
system.physmem.bw_inst_read::switch_cpus4.inst       361997                       # Instruction read bandwidth from this memory (bytes/s)
system.physmem.bw_inst_read::switch_cpus5.inst       444739                       # Instruction read bandwidth from this memory (bytes/s)
system.physmem.bw_inst_read::switch_cpus6.inst       361997                       # Instruction read bandwidth from this memory (bytes/s)
system.physmem.bw_inst_read::switch_cpus7.inst       444739                       # Instruction read bandwidth from this memory (bytes/s)
system.physmem.bw_inst_read::total            2989062                       # Instruction read bandwidth from this memory (bytes/s)
system.physmem.bw_write::writebacks          38051070                       # Write bandwidth from this memory (bytes/s)
system.physmem.bw_write::total               38051070                       # Write bandwidth from this memory (bytes/s)
system.physmem.bw_total::writebacks          38051070                       # Total bandwidth to/from this memory (bytes/s)
system.physmem.bw_total::switch_cpus0.inst       341312                       # Total bandwidth to/from this memory (bytes/s)
system.physmem.bw_total::switch_cpus0.data     15989931                       # Total bandwidth to/from this memory (bytes/s)
system.physmem.bw_total::switch_cpus1.inst       361997                       # Total bandwidth to/from this memory (bytes/s)
system.physmem.bw_total::switch_cpus1.data      8046679                       # Total bandwidth to/from this memory (bytes/s)
system.physmem.bw_total::switch_cpus2.inst       361997                       # Total bandwidth to/from this memory (bytes/s)
system.physmem.bw_total::switch_cpus2.data      8046679                       # Total bandwidth to/from this memory (bytes/s)
system.physmem.bw_total::switch_cpus3.inst       310283                       # Total bandwidth to/from this memory (bytes/s)
system.physmem.bw_total::switch_cpus3.data     16010616                       # Total bandwidth to/from this memory (bytes/s)
system.physmem.bw_total::switch_cpus4.inst       361997                       # Total bandwidth to/from this memory (bytes/s)
system.physmem.bw_total::switch_cpus4.data     33117566                       # Total bandwidth to/from this memory (bytes/s)
system.physmem.bw_total::switch_cpus5.inst       444739                       # Total bandwidth to/from this memory (bytes/s)
system.physmem.bw_total::switch_cpus5.data     10001464                       # Total bandwidth to/from this memory (bytes/s)
system.physmem.bw_total::switch_cpus6.inst       361997                       # Total bandwidth to/from this memory (bytes/s)
system.physmem.bw_total::switch_cpus6.data     27356641                       # Total bandwidth to/from this memory (bytes/s)
system.physmem.bw_total::switch_cpus7.inst       444739                       # Total bandwidth to/from this memory (bytes/s)
system.physmem.bw_total::switch_cpus7.data      9991121                       # Total bandwidth to/from this memory (bytes/s)
system.physmem.bw_total::total              169600829                       # Total bandwidth to/from this memory (bytes/s)
system.switch_cpus0.dtb.inst_hits                   0                       # ITB inst hits
system.switch_cpus0.dtb.inst_misses                 0                       # ITB inst misses
system.switch_cpus0.dtb.read_hits                   0                       # DTB read hits
system.switch_cpus0.dtb.read_misses                 0                       # DTB read misses
system.switch_cpus0.dtb.write_hits                  0                       # DTB write hits
system.switch_cpus0.dtb.write_misses                0                       # DTB write misses
system.switch_cpus0.dtb.flush_tlb                   0                       # Number of times complete TLB was flushed
system.switch_cpus0.dtb.flush_tlb_mva               0                       # Number of times TLB was flushed by MVA
system.switch_cpus0.dtb.flush_tlb_mva_asid            0                       # Number of times TLB was flushed by MVA & ASID
system.switch_cpus0.dtb.flush_tlb_asid              0                       # Number of times TLB was flushed by ASID
system.switch_cpus0.dtb.flush_entries               0                       # Number of entries that have been flushed from TLB
system.switch_cpus0.dtb.align_faults                0                       # Number of TLB faults due to alignment restrictions
system.switch_cpus0.dtb.prefetch_faults             0                       # Number of TLB faults due to prefetch
system.switch_cpus0.dtb.domain_faults               0                       # Number of TLB faults due to domain restrictions
system.switch_cpus0.dtb.perms_faults                0                       # Number of TLB faults due to permissions restrictions
system.switch_cpus0.dtb.read_accesses               0                       # DTB read accesses
system.switch_cpus0.dtb.write_accesses              0                       # DTB write accesses
system.switch_cpus0.dtb.inst_accesses               0                       # ITB inst accesses
system.switch_cpus0.dtb.hits                        0                       # DTB hits
system.switch_cpus0.dtb.misses                      0                       # DTB misses
system.switch_cpus0.dtb.accesses                    0                       # DTB accesses
system.switch_cpus0.itb.inst_hits                   0                       # ITB inst hits
system.switch_cpus0.itb.inst_misses                 0                       # ITB inst misses
system.switch_cpus0.itb.read_hits                   0                       # DTB read hits
system.switch_cpus0.itb.read_misses                 0                       # DTB read misses
system.switch_cpus0.itb.write_hits                  0                       # DTB write hits
system.switch_cpus0.itb.write_misses                0                       # DTB write misses
system.switch_cpus0.itb.flush_tlb                   0                       # Number of times complete TLB was flushed
system.switch_cpus0.itb.flush_tlb_mva               0                       # Number of times TLB was flushed by MVA
system.switch_cpus0.itb.flush_tlb_mva_asid            0                       # Number of times TLB was flushed by MVA & ASID
system.switch_cpus0.itb.flush_tlb_asid              0                       # Number of times TLB was flushed by ASID
system.switch_cpus0.itb.flush_entries               0                       # Number of entries that have been flushed from TLB
system.switch_cpus0.itb.align_faults                0                       # Number of TLB faults due to alignment restrictions
system.switch_cpus0.itb.prefetch_faults             0                       # Number of TLB faults due to prefetch
system.switch_cpus0.itb.domain_faults               0                       # Number of TLB faults due to domain restrictions
system.switch_cpus0.itb.perms_faults                0                       # Number of TLB faults due to permissions restrictions
system.switch_cpus0.itb.read_accesses               0                       # DTB read accesses
system.switch_cpus0.itb.write_accesses              0                       # DTB write accesses
system.switch_cpus0.itb.inst_accesses               0                       # ITB inst accesses
system.switch_cpus0.itb.hits                        0                       # DTB hits
system.switch_cpus0.itb.misses                      0                       # DTB misses
system.switch_cpus0.itb.accesses                    0                       # DTB accesses
system.cpu0.workload.num_syscalls                   3                       # Number of system calls
system.switch_cpus0.numCycles                29678151                       # number of cpu cycles simulated
system.switch_cpus0.numWorkItemsStarted             0                       # number of work items this cpu started
system.switch_cpus0.numWorkItemsCompleted            0                       # number of work items this cpu completed
system.switch_cpus0.BPredUnit.lookups         2182511                       # Number of BP lookups
system.switch_cpus0.BPredUnit.condPredicted      1952435                       # Number of conditional branches predicted
system.switch_cpus0.BPredUnit.condIncorrect       175078                       # Number of conditional branches incorrect
system.switch_cpus0.BPredUnit.BTBLookups      1459630                       # Number of BTB lookups
system.switch_cpus0.BPredUnit.BTBHits         1434593                       # Number of BTB hits
system.switch_cpus0.BPredUnit.BTBCorrect            0                       # Number of correct BTB predictions (this stat may not work properly.
system.switch_cpus0.BPredUnit.usedRAS          128214                       # Number of times the RAS was used to get a target.
system.switch_cpus0.BPredUnit.RASInCorrect         5238                       # Number of incorrect RAS predictions.
system.switch_cpus0.fetch.icacheStallCycles     23121748                       # Number of cycles fetch is stalled on an Icache miss
system.switch_cpus0.fetch.Insts              12405667                       # Number of instructions fetch has processed
system.switch_cpus0.fetch.Branches            2182511                       # Number of branches that fetch encountered
system.switch_cpus0.fetch.predictedBranches      1562807                       # Number of branches that fetch has predicted taken
system.switch_cpus0.fetch.Cycles              2766669                       # Number of cycles fetch has run and was not squashing or blocked
system.switch_cpus0.fetch.SquashCycles         575701                       # Number of cycles fetch has spent squashing
system.switch_cpus0.fetch.BlockedCycles        522166                       # Number of cycles fetch has spent blocked
system.switch_cpus0.fetch.MiscStallCycles            1                       # Number of cycles fetch has spent waiting on interrupts, or bad addresses, or out of MSHRs
system.switch_cpus0.fetch.PendingTrapStallCycles           29                       # Number of stall cycles due to pending traps
system.switch_cpus0.fetch.CacheLines          1399896                       # Number of cache lines fetched
system.switch_cpus0.fetch.IcacheSquashes       171532                       # Number of outstanding Icache misses that were squashed
system.switch_cpus0.fetch.rateDist::samples     26810270                       # Number of instructions fetched each cycle (Total)
system.switch_cpus0.fetch.rateDist::mean     0.517565                       # Number of instructions fetched each cycle (Total)
system.switch_cpus0.fetch.rateDist::stdev     1.755980                       # Number of instructions fetched each cycle (Total)
system.switch_cpus0.fetch.rateDist::underflows            0      0.00%      0.00% # Number of instructions fetched each cycle (Total)
system.switch_cpus0.fetch.rateDist::0        24043601     89.68%     89.68% # Number of instructions fetched each cycle (Total)
system.switch_cpus0.fetch.rateDist::1          425778      1.59%     91.27% # Number of instructions fetched each cycle (Total)
system.switch_cpus0.fetch.rateDist::2          210669      0.79%     92.05% # Number of instructions fetched each cycle (Total)
system.switch_cpus0.fetch.rateDist::3          420374      1.57%     93.62% # Number of instructions fetched each cycle (Total)
system.switch_cpus0.fetch.rateDist::4          131254      0.49%     94.11% # Number of instructions fetched each cycle (Total)
system.switch_cpus0.fetch.rateDist::5          389547      1.45%     95.56% # Number of instructions fetched each cycle (Total)
system.switch_cpus0.fetch.rateDist::6           60276      0.22%     95.79% # Number of instructions fetched each cycle (Total)
system.switch_cpus0.fetch.rateDist::7           96768      0.36%     96.15% # Number of instructions fetched each cycle (Total)
system.switch_cpus0.fetch.rateDist::8         1032003      3.85%    100.00% # Number of instructions fetched each cycle (Total)
system.switch_cpus0.fetch.rateDist::overflows            0      0.00%    100.00% # Number of instructions fetched each cycle (Total)
system.switch_cpus0.fetch.rateDist::min_value            0                       # Number of instructions fetched each cycle (Total)
system.switch_cpus0.fetch.rateDist::max_value            8                       # Number of instructions fetched each cycle (Total)
system.switch_cpus0.fetch.rateDist::total     26810270                       # Number of instructions fetched each cycle (Total)
system.switch_cpus0.fetch.branchRate         0.073539                       # Number of branch fetches per cycle
system.switch_cpus0.fetch.rate               0.418007                       # Number of inst fetches per cycle
system.switch_cpus0.decode.IdleCycles        22910642                       # Number of cycles decode is idle
system.switch_cpus0.decode.BlockedCycles       738922                       # Number of cycles decode is blocked
system.switch_cpus0.decode.RunCycles          2761020                       # Number of cycles decode is running
system.switch_cpus0.decode.UnblockCycles         2236                       # Number of cycles decode is unblocking
system.switch_cpus0.decode.SquashCycles        397446                       # Number of cycles decode is squashing
system.switch_cpus0.decode.BranchResolved       202960                       # Number of times decode resolved a branch
system.switch_cpus0.decode.BranchMispred         2211                       # Number of times decode detected a branch misprediction
system.switch_cpus0.decode.DecodedInsts      13851224                       # Number of instructions handled by decode
system.switch_cpus0.decode.SquashedInsts         5110                       # Number of squashed instructions handled by decode
system.switch_cpus0.rename.SquashCycles        397446                       # Number of cycles rename is squashing
system.switch_cpus0.rename.IdleCycles        22935406                       # Number of cycles rename is idle
system.switch_cpus0.rename.BlockCycles         451508                       # Number of cycles rename is blocking
system.switch_cpus0.rename.serializeStallCycles       211434                       # count of cycles rename stalled for serializing inst
system.switch_cpus0.rename.RunCycles          2737058                       # Number of cycles rename is running
system.switch_cpus0.rename.UnblockCycles        77414                       # Number of cycles rename is unblocking
system.switch_cpus0.rename.RenamedInsts      13831033                       # Number of instructions processed by rename
system.switch_cpus0.rename.ROBFullEvents           21                       # Number of times rename has blocked due to ROB full
system.switch_cpus0.rename.IQFullEvents         10576                       # Number of times rename has blocked due to IQ full
system.switch_cpus0.rename.LSQFullEvents        58679                       # Number of times rename has blocked due to LSQ full
system.switch_cpus0.rename.RenamedOperands     18100800                       # Number of destination operands rename has renamed
system.switch_cpus0.rename.RenameLookups     62642317                       # Number of register rename lookups that rename has made
system.switch_cpus0.rename.int_rename_lookups     62642317                       # Number of integer rename lookups
system.switch_cpus0.rename.CommittedMaps     14646429                       # Number of HB maps that are committed
system.switch_cpus0.rename.UndoneMaps         3454344                       # Number of HB maps that are undone due to squashing
system.switch_cpus0.rename.serializingInsts         1833                       # count of serializing insts renamed
system.switch_cpus0.rename.tempSerializingInsts          933                       # count of temporary serializing insts renamed
system.switch_cpus0.rename.skidInsts           180665                       # count of insts added to the skid buffer
system.switch_cpus0.memDep0.insertedLoads      2518100                       # Number of loads inserted to the mem dependence unit.
system.switch_cpus0.memDep0.insertedStores       398427                       # Number of stores inserted to the mem dependence unit.
system.switch_cpus0.memDep0.conflictingLoads         3310                       # Number of conflicting loads.
system.switch_cpus0.memDep0.conflictingStores        90409                       # Number of conflicting stores.
system.switch_cpus0.iq.iqInstsAdded          13758999                       # Number of instructions added to the IQ (excludes non-spec)
system.switch_cpus0.iq.iqNonSpecInstsAdded         1840                       # Number of non-speculative instructions added to the IQ
system.switch_cpus0.iq.iqInstsIssued         12870715                       # Number of instructions issued
system.switch_cpus0.iq.iqSquashedInstsIssued         8354                       # Number of squashed instructions issued
system.switch_cpus0.iq.iqSquashedInstsExamined      2506165                       # Number of squashed instructions iterated over during squash; mainly for profiling
system.switch_cpus0.iq.iqSquashedOperandsExamined      5158020                       # Number of squashed operands that are examined and possibly removed from graph
system.switch_cpus0.iq.iqSquashedNonSpecRemoved           22                       # Number of squashed non-spec instructions that were removed
system.switch_cpus0.iq.issued_per_cycle::samples     26810270                       # Number of insts issued each cycle
system.switch_cpus0.iq.issued_per_cycle::mean     0.480067                       # Number of insts issued each cycle
system.switch_cpus0.iq.issued_per_cycle::stdev     1.091635                       # Number of insts issued each cycle
system.switch_cpus0.iq.issued_per_cycle::underflows            0      0.00%      0.00% # Number of insts issued each cycle
system.switch_cpus0.iq.issued_per_cycle::0     21169090     78.96%     78.96% # Number of insts issued each cycle
system.switch_cpus0.iq.issued_per_cycle::1      1753588      6.54%     85.50% # Number of insts issued each cycle
system.switch_cpus0.iq.issued_per_cycle::2      1912562      7.13%     92.63% # Number of insts issued each cycle
system.switch_cpus0.iq.issued_per_cycle::3      1102155      4.11%     96.74% # Number of insts issued each cycle
system.switch_cpus0.iq.issued_per_cycle::4       561079      2.09%     98.84% # Number of insts issued each cycle
system.switch_cpus0.iq.issued_per_cycle::5       140075      0.52%     99.36% # Number of insts issued each cycle
system.switch_cpus0.iq.issued_per_cycle::6       164495      0.61%     99.97% # Number of insts issued each cycle
system.switch_cpus0.iq.issued_per_cycle::7         3931      0.01%     99.99% # Number of insts issued each cycle
system.switch_cpus0.iq.issued_per_cycle::8         3295      0.01%    100.00% # Number of insts issued each cycle
system.switch_cpus0.iq.issued_per_cycle::overflows            0      0.00%    100.00% # Number of insts issued each cycle
system.switch_cpus0.iq.issued_per_cycle::min_value            0                       # Number of insts issued each cycle
system.switch_cpus0.iq.issued_per_cycle::max_value            8                       # Number of insts issued each cycle
system.switch_cpus0.iq.issued_per_cycle::total     26810270                       # Number of insts issued each cycle
system.switch_cpus0.iq.fu_full::No_OpClass            0      0.00%      0.00% # attempts to use FU when none available
system.switch_cpus0.iq.fu_full::IntAlu          21088     57.21%     57.21% # attempts to use FU when none available
system.switch_cpus0.iq.fu_full::IntMult             0      0.00%     57.21% # attempts to use FU when none available
system.switch_cpus0.iq.fu_full::IntDiv              0      0.00%     57.21% # attempts to use FU when none available
system.switch_cpus0.iq.fu_full::FloatAdd            0      0.00%     57.21% # attempts to use FU when none available
system.switch_cpus0.iq.fu_full::FloatCmp            0      0.00%     57.21% # attempts to use FU when none available
system.switch_cpus0.iq.fu_full::FloatCvt            0      0.00%     57.21% # attempts to use FU when none available
system.switch_cpus0.iq.fu_full::FloatMult            0      0.00%     57.21% # attempts to use FU when none available
system.switch_cpus0.iq.fu_full::FloatDiv            0      0.00%     57.21% # attempts to use FU when none available
system.switch_cpus0.iq.fu_full::FloatSqrt            0      0.00%     57.21% # attempts to use FU when none available
system.switch_cpus0.iq.fu_full::SimdAdd             0      0.00%     57.21% # attempts to use FU when none available
system.switch_cpus0.iq.fu_full::SimdAddAcc            0      0.00%     57.21% # attempts to use FU when none available
system.switch_cpus0.iq.fu_full::SimdAlu             0      0.00%     57.21% # attempts to use FU when none available
system.switch_cpus0.iq.fu_full::SimdCmp             0      0.00%     57.21% # attempts to use FU when none available
system.switch_cpus0.iq.fu_full::SimdCvt             0      0.00%     57.21% # attempts to use FU when none available
system.switch_cpus0.iq.fu_full::SimdMisc            0      0.00%     57.21% # attempts to use FU when none available
system.switch_cpus0.iq.fu_full::SimdMult            0      0.00%     57.21% # attempts to use FU when none available
system.switch_cpus0.iq.fu_full::SimdMultAcc            0      0.00%     57.21% # attempts to use FU when none available
system.switch_cpus0.iq.fu_full::SimdShift            0      0.00%     57.21% # attempts to use FU when none available
system.switch_cpus0.iq.fu_full::SimdShiftAcc            0      0.00%     57.21% # attempts to use FU when none available
system.switch_cpus0.iq.fu_full::SimdSqrt            0      0.00%     57.21% # attempts to use FU when none available
system.switch_cpus0.iq.fu_full::SimdFloatAdd            0      0.00%     57.21% # attempts to use FU when none available
system.switch_cpus0.iq.fu_full::SimdFloatAlu            0      0.00%     57.21% # attempts to use FU when none available
system.switch_cpus0.iq.fu_full::SimdFloatCmp            0      0.00%     57.21% # attempts to use FU when none available
system.switch_cpus0.iq.fu_full::SimdFloatCvt            0      0.00%     57.21% # attempts to use FU when none available
system.switch_cpus0.iq.fu_full::SimdFloatDiv            0      0.00%     57.21% # attempts to use FU when none available
system.switch_cpus0.iq.fu_full::SimdFloatMisc            0      0.00%     57.21% # attempts to use FU when none available
system.switch_cpus0.iq.fu_full::SimdFloatMult            0      0.00%     57.21% # attempts to use FU when none available
system.switch_cpus0.iq.fu_full::SimdFloatMultAcc            0      0.00%     57.21% # attempts to use FU when none available
system.switch_cpus0.iq.fu_full::SimdFloatSqrt            0      0.00%     57.21% # attempts to use FU when none available
system.switch_cpus0.iq.fu_full::MemRead          8579     23.28%     80.49% # attempts to use FU when none available
system.switch_cpus0.iq.fu_full::MemWrite         7191     19.51%    100.00% # attempts to use FU when none available
system.switch_cpus0.iq.fu_full::IprAccess            0      0.00%    100.00% # attempts to use FU when none available
system.switch_cpus0.iq.fu_full::InstPrefetch            0      0.00%    100.00% # attempts to use FU when none available
system.switch_cpus0.iq.FU_type_0::No_OpClass            0      0.00%      0.00% # Type of FU issued
system.switch_cpus0.iq.FU_type_0::IntAlu     10078989     78.31%     78.31% # Type of FU issued
system.switch_cpus0.iq.FU_type_0::IntMult        99370      0.77%     79.08% # Type of FU issued
system.switch_cpus0.iq.FU_type_0::IntDiv            0      0.00%     79.08% # Type of FU issued
system.switch_cpus0.iq.FU_type_0::FloatAdd            0      0.00%     79.08% # Type of FU issued
system.switch_cpus0.iq.FU_type_0::FloatCmp            0      0.00%     79.08% # Type of FU issued
system.switch_cpus0.iq.FU_type_0::FloatCvt            0      0.00%     79.08% # Type of FU issued
system.switch_cpus0.iq.FU_type_0::FloatMult            0      0.00%     79.08% # Type of FU issued
system.switch_cpus0.iq.FU_type_0::FloatDiv            0      0.00%     79.08% # Type of FU issued
system.switch_cpus0.iq.FU_type_0::FloatSqrt            0      0.00%     79.08% # Type of FU issued
system.switch_cpus0.iq.FU_type_0::SimdAdd            0      0.00%     79.08% # Type of FU issued
system.switch_cpus0.iq.FU_type_0::SimdAddAcc            0      0.00%     79.08% # Type of FU issued
system.switch_cpus0.iq.FU_type_0::SimdAlu            0      0.00%     79.08% # Type of FU issued
system.switch_cpus0.iq.FU_type_0::SimdCmp            0      0.00%     79.08% # Type of FU issued
system.switch_cpus0.iq.FU_type_0::SimdCvt            0      0.00%     79.08% # Type of FU issued
system.switch_cpus0.iq.FU_type_0::SimdMisc            0      0.00%     79.08% # Type of FU issued
system.switch_cpus0.iq.FU_type_0::SimdMult            0      0.00%     79.08% # Type of FU issued
system.switch_cpus0.iq.FU_type_0::SimdMultAcc            0      0.00%     79.08% # Type of FU issued
system.switch_cpus0.iq.FU_type_0::SimdShift            0      0.00%     79.08% # Type of FU issued
system.switch_cpus0.iq.FU_type_0::SimdShiftAcc            0      0.00%     79.08% # Type of FU issued
system.switch_cpus0.iq.FU_type_0::SimdSqrt            0      0.00%     79.08% # Type of FU issued
system.switch_cpus0.iq.FU_type_0::SimdFloatAdd            0      0.00%     79.08% # Type of FU issued
system.switch_cpus0.iq.FU_type_0::SimdFloatAlu            0      0.00%     79.08% # Type of FU issued
system.switch_cpus0.iq.FU_type_0::SimdFloatCmp            0      0.00%     79.08% # Type of FU issued
system.switch_cpus0.iq.FU_type_0::SimdFloatCvt            0      0.00%     79.08% # Type of FU issued
system.switch_cpus0.iq.FU_type_0::SimdFloatDiv            0      0.00%     79.08% # Type of FU issued
system.switch_cpus0.iq.FU_type_0::SimdFloatMisc          901      0.01%     79.09% # Type of FU issued
system.switch_cpus0.iq.FU_type_0::SimdFloatMult            0      0.00%     79.09% # Type of FU issued
system.switch_cpus0.iq.FU_type_0::SimdFloatMultAcc            0      0.00%     79.09% # Type of FU issued
system.switch_cpus0.iq.FU_type_0::SimdFloatSqrt            0      0.00%     79.09% # Type of FU issued
system.switch_cpus0.iq.FU_type_0::MemRead      2296485     17.84%     96.93% # Type of FU issued
system.switch_cpus0.iq.FU_type_0::MemWrite       394970      3.07%    100.00% # Type of FU issued
system.switch_cpus0.iq.FU_type_0::IprAccess            0      0.00%    100.00% # Type of FU issued
system.switch_cpus0.iq.FU_type_0::InstPrefetch            0      0.00%    100.00% # Type of FU issued
system.switch_cpus0.iq.FU_type_0::total      12870715                       # Type of FU issued
system.switch_cpus0.iq.rate                  0.433676                       # Inst issue rate
system.switch_cpus0.iq.fu_busy_cnt              36858                       # FU busy when requested
system.switch_cpus0.iq.fu_busy_rate          0.002864                       # FU busy rate (busy events/executed inst)
system.switch_cpus0.iq.int_inst_queue_reads     52596910                       # Number of integer instruction queue reads
system.switch_cpus0.iq.int_inst_queue_writes     16267047                       # Number of integer instruction queue writes
system.switch_cpus0.iq.int_inst_queue_wakeup_accesses     12541458                       # Number of integer instruction queue wakeup accesses
system.switch_cpus0.iq.fp_inst_queue_reads            0                       # Number of floating instruction queue reads
system.switch_cpus0.iq.fp_inst_queue_writes            0                       # Number of floating instruction queue writes
system.switch_cpus0.iq.fp_inst_queue_wakeup_accesses            0                       # Number of floating instruction queue wakeup accesses
system.switch_cpus0.iq.int_alu_accesses      12907573                       # Number of integer alu accesses
system.switch_cpus0.iq.fp_alu_accesses              0                       # Number of floating point alu accesses
system.switch_cpus0.iew.lsq.thread0.forwLoads         9608                       # Number of loads that had data forwarded from stores
system.switch_cpus0.iew.lsq.thread0.invAddrLoads            0                       # Number of loads ignored due to an invalid address
system.switch_cpus0.iew.lsq.thread0.squashedLoads       515141                       # Number of loads squashed
system.switch_cpus0.iew.lsq.thread0.ignoredResponses           18                       # Number of memory responses ignored because the instruction is squashed
system.switch_cpus0.iew.lsq.thread0.memOrderViolation           47                       # Number of memory ordering violations
system.switch_cpus0.iew.lsq.thread0.squashedStores        10119                       # Number of stores squashed
system.switch_cpus0.iew.lsq.thread0.invAddrSwpfs            0                       # Number of software prefetches ignored due to an invalid address
system.switch_cpus0.iew.lsq.thread0.blockedLoads            0                       # Number of blocked loads due to partial load-store forwarding
system.switch_cpus0.iew.lsq.thread0.rescheduledLoads            0                       # Number of loads that were rescheduled
system.switch_cpus0.iew.lsq.thread0.cacheBlocked            0                       # Number of times an access to memory failed due to the cache being blocked
system.switch_cpus0.iew.iewIdleCycles               0                       # Number of cycles IEW is idle
system.switch_cpus0.iew.iewSquashCycles        397446                       # Number of cycles IEW is squashing
system.switch_cpus0.iew.iewBlockCycles         363732                       # Number of cycles IEW is blocking
system.switch_cpus0.iew.iewUnblockCycles         9380                       # Number of cycles IEW is unblocking
system.switch_cpus0.iew.iewDispatchedInsts     13760853                       # Number of instructions dispatched to IQ
system.switch_cpus0.iew.iewDispSquashedInsts         1804                       # Number of squashed instructions skipped by dispatch
system.switch_cpus0.iew.iewDispLoadInsts      2518100                       # Number of dispatched load instructions
system.switch_cpus0.iew.iewDispStoreInsts       398427                       # Number of dispatched store instructions
system.switch_cpus0.iew.iewDispNonSpecInsts          932                       # Number of dispatched non-speculative instructions
system.switch_cpus0.iew.iewIQFullEvents          4503                       # Number of times the IQ has become full, causing a stall
system.switch_cpus0.iew.iewLSQFullEvents          190                       # Number of times the LSQ has become full, causing a stall
system.switch_cpus0.iew.memOrderViolationEvents           47                       # Number of memory order violations
system.switch_cpus0.iew.predictedTakenIncorrect       117619                       # Number of branches that were predicted taken incorrectly
system.switch_cpus0.iew.predictedNotTakenIncorrect        67635                       # Number of branches that were predicted not taken incorrectly
system.switch_cpus0.iew.branchMispredicts       185254                       # Number of branch mispredicts detected at execute
system.switch_cpus0.iew.iewExecutedInsts     12708285                       # Number of executed instructions
system.switch_cpus0.iew.iewExecLoadInsts      2264115                       # Number of load instructions executed
system.switch_cpus0.iew.iewExecSquashedInsts       162428                       # Number of squashed instructions skipped in execute
system.switch_cpus0.iew.exec_swp                    0                       # number of swp insts executed
system.switch_cpus0.iew.exec_nop                   14                       # number of nop insts executed
system.switch_cpus0.iew.exec_refs             2659051                       # number of memory reference insts executed
system.switch_cpus0.iew.exec_branches         1933730                       # Number of branches executed
system.switch_cpus0.iew.exec_stores            394936                       # Number of stores executed
system.switch_cpus0.iew.exec_rate            0.428203                       # Inst execution rate
system.switch_cpus0.iew.wb_sent              12544365                       # cumulative count of insts sent to commit
system.switch_cpus0.iew.wb_count             12541458                       # cumulative count of insts written-back
system.switch_cpus0.iew.wb_producers          7596434                       # num instructions producing a value
system.switch_cpus0.iew.wb_consumers         16448460                       # num instructions consuming a value
system.switch_cpus0.iew.wb_penalized                0                       # number of instrctions required to write to 'other' IQ
system.switch_cpus0.iew.wb_rate              0.422582                       # insts written-back per cycle
system.switch_cpus0.iew.wb_fanout            0.461833                       # average fanout of values written-back
system.switch_cpus0.iew.wb_penalized_rate            0                       # fraction of instructions written-back that wrote to 'other' IQ
system.switch_cpus0.commit.commitCommittedInsts     10000000                       # The number of committed instructions
system.switch_cpus0.commit.commitCommittedOps     11236445                       # The number of committed instructions
system.switch_cpus0.commit.commitSquashedInsts      2524893                       # The number of squashed insts skipped by commit
system.switch_cpus0.commit.commitNonSpecStalls         1818                       # The number of times commit has been forced to stall to communicate backwards
system.switch_cpus0.commit.branchMispredicts       173802                       # The number of times a branch was mispredicted
system.switch_cpus0.commit.committed_per_cycle::samples     26412824                       # Number of insts commited each cycle
system.switch_cpus0.commit.committed_per_cycle::mean     0.425416                       # Number of insts commited each cycle
system.switch_cpus0.commit.committed_per_cycle::stdev     1.295362                       # Number of insts commited each cycle
system.switch_cpus0.commit.committed_per_cycle::underflows            0      0.00%      0.00% # Number of insts commited each cycle
system.switch_cpus0.commit.committed_per_cycle::0     22237965     84.19%     84.19% # Number of insts commited each cycle
system.switch_cpus0.commit.committed_per_cycle::1      1633126      6.18%     90.38% # Number of insts commited each cycle
system.switch_cpus0.commit.committed_per_cycle::2      1056652      4.00%     94.38% # Number of insts commited each cycle
system.switch_cpus0.commit.committed_per_cycle::3       330893      1.25%     95.63% # Number of insts commited each cycle
system.switch_cpus0.commit.committed_per_cycle::4       555509      2.10%     97.73% # Number of insts commited each cycle
system.switch_cpus0.commit.committed_per_cycle::5       105897      0.40%     98.13% # Number of insts commited each cycle
system.switch_cpus0.commit.committed_per_cycle::6        67546      0.26%     98.39% # Number of insts commited each cycle
system.switch_cpus0.commit.committed_per_cycle::7        61349      0.23%     98.62% # Number of insts commited each cycle
system.switch_cpus0.commit.committed_per_cycle::8       363887      1.38%    100.00% # Number of insts commited each cycle
system.switch_cpus0.commit.committed_per_cycle::overflows            0      0.00%    100.00% # Number of insts commited each cycle
system.switch_cpus0.commit.committed_per_cycle::min_value            0                       # Number of insts commited each cycle
system.switch_cpus0.commit.committed_per_cycle::max_value            8                       # Number of insts commited each cycle
system.switch_cpus0.commit.committed_per_cycle::total     26412824                       # Number of insts commited each cycle
system.switch_cpus0.commit.committedInsts     10000000                       # Number of instructions committed
system.switch_cpus0.commit.committedOps      11236445                       # Number of ops (including micro ops) committed
system.switch_cpus0.commit.swp_count                0                       # Number of s/w prefetches committed
system.switch_cpus0.commit.refs               2391264                       # Number of memory references committed
system.switch_cpus0.commit.loads              2002956                       # Number of loads committed
system.switch_cpus0.commit.membars                907                       # Number of memory barriers committed
system.switch_cpus0.commit.branches           1725938                       # Number of branches committed
system.switch_cpus0.commit.fp_insts                 0                       # Number of committed floating point instructions.
system.switch_cpus0.commit.int_insts          9812681                       # Number of committed integer instructions.
system.switch_cpus0.commit.function_calls       138175                       # Number of function calls committed.
system.switch_cpus0.commit.bw_lim_events       363887                       # number cycles where commit BW limit reached
system.switch_cpus0.commit.bw_limited               0                       # number of insts not committed due to BW limits
system.switch_cpus0.rob.rob_reads            39810236                       # The number of ROB reads
system.switch_cpus0.rob.rob_writes           27920474                       # The number of ROB writes
system.switch_cpus0.timesIdled                 517794                       # Number of times that the entire CPU went into an idle state and unscheduled itself
system.switch_cpus0.idleCycles                2867881                       # Total number of cycles that the CPU has spent unscheduled due to idling
system.switch_cpus0.committedInsts           10000000                       # Number of Instructions Simulated
system.switch_cpus0.committedOps             11236445                       # Number of Ops (including micro ops) Simulated
system.switch_cpus0.committedInsts_total     10000000                       # Number of Instructions Simulated
system.switch_cpus0.cpi                      2.967815                       # CPI: Cycles Per Instruction
system.switch_cpus0.cpi_total                2.967815                       # CPI: Total CPI of All Threads
system.switch_cpus0.ipc                      0.336948                       # IPC: Instructions Per Cycle
system.switch_cpus0.ipc_total                0.336948                       # IPC: Total IPC of All Threads
system.switch_cpus0.int_regfile_reads        59102204                       # number of integer regfile reads
system.switch_cpus0.int_regfile_writes       16319117                       # number of integer regfile writes
system.switch_cpus0.misc_regfile_reads       14745346                       # number of misc regfile reads
system.switch_cpus0.misc_regfile_writes          1816                       # number of misc regfile writes
system.switch_cpus1.dtb.inst_hits                   0                       # ITB inst hits
system.switch_cpus1.dtb.inst_misses                 0                       # ITB inst misses
system.switch_cpus1.dtb.read_hits                   0                       # DTB read hits
system.switch_cpus1.dtb.read_misses                 0                       # DTB read misses
system.switch_cpus1.dtb.write_hits                  0                       # DTB write hits
system.switch_cpus1.dtb.write_misses                0                       # DTB write misses
system.switch_cpus1.dtb.flush_tlb                   0                       # Number of times complete TLB was flushed
system.switch_cpus1.dtb.flush_tlb_mva               0                       # Number of times TLB was flushed by MVA
system.switch_cpus1.dtb.flush_tlb_mva_asid            0                       # Number of times TLB was flushed by MVA & ASID
system.switch_cpus1.dtb.flush_tlb_asid              0                       # Number of times TLB was flushed by ASID
system.switch_cpus1.dtb.flush_entries               0                       # Number of entries that have been flushed from TLB
system.switch_cpus1.dtb.align_faults                0                       # Number of TLB faults due to alignment restrictions
system.switch_cpus1.dtb.prefetch_faults             0                       # Number of TLB faults due to prefetch
system.switch_cpus1.dtb.domain_faults               0                       # Number of TLB faults due to domain restrictions
system.switch_cpus1.dtb.perms_faults                0                       # Number of TLB faults due to permissions restrictions
system.switch_cpus1.dtb.read_accesses               0                       # DTB read accesses
system.switch_cpus1.dtb.write_accesses              0                       # DTB write accesses
system.switch_cpus1.dtb.inst_accesses               0                       # ITB inst accesses
system.switch_cpus1.dtb.hits                        0                       # DTB hits
system.switch_cpus1.dtb.misses                      0                       # DTB misses
system.switch_cpus1.dtb.accesses                    0                       # DTB accesses
system.switch_cpus1.itb.inst_hits                   0                       # ITB inst hits
system.switch_cpus1.itb.inst_misses                 0                       # ITB inst misses
system.switch_cpus1.itb.read_hits                   0                       # DTB read hits
system.switch_cpus1.itb.read_misses                 0                       # DTB read misses
system.switch_cpus1.itb.write_hits                  0                       # DTB write hits
system.switch_cpus1.itb.write_misses                0                       # DTB write misses
system.switch_cpus1.itb.flush_tlb                   0                       # Number of times complete TLB was flushed
system.switch_cpus1.itb.flush_tlb_mva               0                       # Number of times TLB was flushed by MVA
system.switch_cpus1.itb.flush_tlb_mva_asid            0                       # Number of times TLB was flushed by MVA & ASID
system.switch_cpus1.itb.flush_tlb_asid              0                       # Number of times TLB was flushed by ASID
system.switch_cpus1.itb.flush_entries               0                       # Number of entries that have been flushed from TLB
system.switch_cpus1.itb.align_faults                0                       # Number of TLB faults due to alignment restrictions
system.switch_cpus1.itb.prefetch_faults             0                       # Number of TLB faults due to prefetch
system.switch_cpus1.itb.domain_faults               0                       # Number of TLB faults due to domain restrictions
system.switch_cpus1.itb.perms_faults                0                       # Number of TLB faults due to permissions restrictions
system.switch_cpus1.itb.read_accesses               0                       # DTB read accesses
system.switch_cpus1.itb.write_accesses              0                       # DTB write accesses
system.switch_cpus1.itb.inst_accesses               0                       # ITB inst accesses
system.switch_cpus1.itb.hits                        0                       # DTB hits
system.switch_cpus1.itb.misses                      0                       # DTB misses
system.switch_cpus1.itb.accesses                    0                       # DTB accesses
system.cpu1.workload.num_syscalls                   6                       # Number of system calls
system.switch_cpus1.numCycles                29678151                       # number of cpu cycles simulated
system.switch_cpus1.numWorkItemsStarted             0                       # number of work items this cpu started
system.switch_cpus1.numWorkItemsCompleted            0                       # number of work items this cpu completed
system.switch_cpus1.BPredUnit.lookups         2655703                       # Number of BP lookups
system.switch_cpus1.BPredUnit.condPredicted      2211407                       # Number of conditional branches predicted
system.switch_cpus1.BPredUnit.condIncorrect       242794                       # Number of conditional branches incorrect
system.switch_cpus1.BPredUnit.BTBLookups      1016420                       # Number of BTB lookups
system.switch_cpus1.BPredUnit.BTBHits          970623                       # Number of BTB hits
system.switch_cpus1.BPredUnit.BTBCorrect            0                       # Number of correct BTB predictions (this stat may not work properly.
system.switch_cpus1.BPredUnit.usedRAS          284949                       # Number of times the RAS was used to get a target.
system.switch_cpus1.BPredUnit.RASInCorrect        11335                       # Number of incorrect RAS predictions.
system.switch_cpus1.fetch.icacheStallCycles     23099264                       # Number of cycles fetch is stalled on an Icache miss
system.switch_cpus1.fetch.Insts              14568689                       # Number of instructions fetch has processed
system.switch_cpus1.fetch.Branches            2655703                       # Number of branches that fetch encountered
system.switch_cpus1.fetch.predictedBranches      1255572                       # Number of branches that fetch has predicted taken
system.switch_cpus1.fetch.Cycles              3036189                       # Number of cycles fetch has run and was not squashing or blocked
system.switch_cpus1.fetch.SquashCycles         675134                       # Number of cycles fetch has spent squashing
system.switch_cpus1.fetch.BlockedCycles       1189681                       # Number of cycles fetch has spent blocked
system.switch_cpus1.fetch.MiscStallCycles         2564                       # Number of cycles fetch has spent waiting on interrupts, or bad addresses, or out of MSHRs
system.switch_cpus1.fetch.IcacheWaitRetryStallCycles           48                       # Number of stall cycles due to full MSHR
system.switch_cpus1.fetch.CacheLines          1435381                       # Number of cache lines fetched
system.switch_cpus1.fetch.IcacheSquashes       231969                       # Number of outstanding Icache misses that were squashed
system.switch_cpus1.fetch.rateDist::samples     27757867                       # Number of instructions fetched each cycle (Total)
system.switch_cpus1.fetch.rateDist::mean     0.644843                       # Number of instructions fetched each cycle (Total)
system.switch_cpus1.fetch.rateDist::stdev     2.016340                       # Number of instructions fetched each cycle (Total)
system.switch_cpus1.fetch.rateDist::underflows            0      0.00%      0.00% # Number of instructions fetched each cycle (Total)
system.switch_cpus1.fetch.rateDist::0        24721678     89.06%     89.06% # Number of instructions fetched each cycle (Total)
system.switch_cpus1.fetch.rateDist::1          186136      0.67%     89.73% # Number of instructions fetched each cycle (Total)
system.switch_cpus1.fetch.rateDist::2          236430      0.85%     90.58% # Number of instructions fetched each cycle (Total)
system.switch_cpus1.fetch.rateDist::3          374310      1.35%     91.93% # Number of instructions fetched each cycle (Total)
system.switch_cpus1.fetch.rateDist::4          155234      0.56%     92.49% # Number of instructions fetched each cycle (Total)
system.switch_cpus1.fetch.rateDist::5          200309      0.72%     93.21% # Number of instructions fetched each cycle (Total)
system.switch_cpus1.fetch.rateDist::6          234217      0.84%     94.06% # Number of instructions fetched each cycle (Total)
system.switch_cpus1.fetch.rateDist::7          106657      0.38%     94.44% # Number of instructions fetched each cycle (Total)
system.switch_cpus1.fetch.rateDist::8         1542896      5.56%    100.00% # Number of instructions fetched each cycle (Total)
system.switch_cpus1.fetch.rateDist::overflows            0      0.00%    100.00% # Number of instructions fetched each cycle (Total)
system.switch_cpus1.fetch.rateDist::min_value            0                       # Number of instructions fetched each cycle (Total)
system.switch_cpus1.fetch.rateDist::max_value            8                       # Number of instructions fetched each cycle (Total)
system.switch_cpus1.fetch.rateDist::total     27757867                       # Number of instructions fetched each cycle (Total)
system.switch_cpus1.fetch.branchRate         0.089483                       # Number of branch fetches per cycle
system.switch_cpus1.fetch.rate               0.490889                       # Number of inst fetches per cycle
system.switch_cpus1.decode.IdleCycles        22965738                       # Number of cycles decode is idle
system.switch_cpus1.decode.BlockedCycles      1339157                       # Number of cycles decode is blocked
system.switch_cpus1.decode.RunCycles          3021546                       # Number of cycles decode is running
system.switch_cpus1.decode.UnblockCycles         1557                       # Number of cycles decode is unblocking
system.switch_cpus1.decode.SquashCycles        429864                       # Number of cycles decode is squashing
system.switch_cpus1.decode.BranchResolved       403765                       # Number of times decode resolved a branch
system.switch_cpus1.decode.BranchMispred          257                       # Number of times decode detected a branch misprediction
system.switch_cpus1.decode.DecodedInsts      17801040                       # Number of instructions handled by decode
system.switch_cpus1.decode.SquashedInsts         1470                       # Number of squashed instructions handled by decode
system.switch_cpus1.rename.SquashCycles        429864                       # Number of cycles rename is squashing
system.switch_cpus1.rename.IdleCycles        22989742                       # Number of cycles rename is idle
system.switch_cpus1.rename.BlockCycles          74966                       # Number of cycles rename is blocking
system.switch_cpus1.rename.serializeStallCycles      1198420                       # count of cycles rename stalled for serializing inst
system.switch_cpus1.rename.RunCycles          2999082                       # Number of cycles rename is running
system.switch_cpus1.rename.UnblockCycles        65783                       # Number of cycles rename is unblocking
system.switch_cpus1.rename.RenamedInsts      17690640                       # Number of instructions processed by rename
system.switch_cpus1.rename.ROBFullEvents           17                       # Number of times rename has blocked due to ROB full
system.switch_cpus1.rename.IQFullEvents          9471                       # Number of times rename has blocked due to IQ full
system.switch_cpus1.rename.LSQFullEvents        45609                       # Number of times rename has blocked due to LSQ full
system.switch_cpus1.rename.RenamedOperands     24716166                       # Number of destination operands rename has renamed
system.switch_cpus1.rename.RenameLookups     82263117                       # Number of register rename lookups that rename has made
system.switch_cpus1.rename.int_rename_lookups     82263117                       # Number of integer rename lookups
system.switch_cpus1.rename.CommittedMaps     20672408                       # Number of HB maps that are committed
system.switch_cpus1.rename.UndoneMaps         4043758                       # Number of HB maps that are undone due to squashing
system.switch_cpus1.rename.serializingInsts         4301                       # count of serializing insts renamed
system.switch_cpus1.rename.tempSerializingInsts         2250                       # count of temporary serializing insts renamed
system.switch_cpus1.rename.skidInsts           234169                       # count of insts added to the skid buffer
system.switch_cpus1.memDep0.insertedLoads      1654089                       # Number of loads inserted to the mem dependence unit.
system.switch_cpus1.memDep0.insertedStores       865586                       # Number of stores inserted to the mem dependence unit.
system.switch_cpus1.memDep0.conflictingLoads        10027                       # Number of conflicting loads.
system.switch_cpus1.memDep0.conflictingStores       194838                       # Number of conflicting stores.
system.switch_cpus1.iq.iqInstsAdded          17270794                       # Number of instructions added to the IQ (excludes non-spec)
system.switch_cpus1.iq.iqNonSpecInstsAdded         4315                       # Number of non-speculative instructions added to the IQ
system.switch_cpus1.iq.iqInstsIssued         16565604                       # Number of instructions issued
system.switch_cpus1.iq.iqSquashedInstsIssued        16668                       # Number of squashed instructions issued
system.switch_cpus1.iq.iqSquashedInstsExamined      2098782                       # Number of squashed instructions iterated over during squash; mainly for profiling
system.switch_cpus1.iq.iqSquashedOperandsExamined      4275207                       # Number of squashed operands that are examined and possibly removed from graph
system.switch_cpus1.iq.iqSquashedNonSpecRemoved          183                       # Number of squashed non-spec instructions that were removed
system.switch_cpus1.iq.issued_per_cycle::samples     27757867                       # Number of insts issued each cycle
system.switch_cpus1.iq.issued_per_cycle::mean     0.596790                       # Number of insts issued each cycle
system.switch_cpus1.iq.issued_per_cycle::stdev     1.318939                       # Number of insts issued each cycle
system.switch_cpus1.iq.issued_per_cycle::underflows            0      0.00%      0.00% # Number of insts issued each cycle
system.switch_cpus1.iq.issued_per_cycle::0     20738145     74.71%     74.71% # Number of insts issued each cycle
system.switch_cpus1.iq.issued_per_cycle::1      3202577     11.54%     86.25% # Number of insts issued each cycle
system.switch_cpus1.iq.issued_per_cycle::2      1308064      4.71%     90.96% # Number of insts issued each cycle
system.switch_cpus1.iq.issued_per_cycle::3       734262      2.65%     93.61% # Number of insts issued each cycle
system.switch_cpus1.iq.issued_per_cycle::4       994010      3.58%     97.19% # Number of insts issued each cycle
system.switch_cpus1.iq.issued_per_cycle::5       304795      1.10%     98.29% # Number of insts issued each cycle
system.switch_cpus1.iq.issued_per_cycle::6       300929      1.08%     99.37% # Number of insts issued each cycle
system.switch_cpus1.iq.issued_per_cycle::7       162156      0.58%     99.95% # Number of insts issued each cycle
system.switch_cpus1.iq.issued_per_cycle::8        12929      0.05%    100.00% # Number of insts issued each cycle
system.switch_cpus1.iq.issued_per_cycle::overflows            0      0.00%    100.00% # Number of insts issued each cycle
system.switch_cpus1.iq.issued_per_cycle::min_value            0                       # Number of insts issued each cycle
system.switch_cpus1.iq.issued_per_cycle::max_value            8                       # Number of insts issued each cycle
system.switch_cpus1.iq.issued_per_cycle::total     27757867                       # Number of insts issued each cycle
system.switch_cpus1.iq.fu_full::No_OpClass            0      0.00%      0.00% # attempts to use FU when none available
system.switch_cpus1.iq.fu_full::IntAlu         114799     79.34%     79.34% # attempts to use FU when none available
system.switch_cpus1.iq.fu_full::IntMult             0      0.00%     79.34% # attempts to use FU when none available
system.switch_cpus1.iq.fu_full::IntDiv              0      0.00%     79.34% # attempts to use FU when none available
system.switch_cpus1.iq.fu_full::FloatAdd            0      0.00%     79.34% # attempts to use FU when none available
system.switch_cpus1.iq.fu_full::FloatCmp            0      0.00%     79.34% # attempts to use FU when none available
system.switch_cpus1.iq.fu_full::FloatCvt            0      0.00%     79.34% # attempts to use FU when none available
system.switch_cpus1.iq.fu_full::FloatMult            0      0.00%     79.34% # attempts to use FU when none available
system.switch_cpus1.iq.fu_full::FloatDiv            0      0.00%     79.34% # attempts to use FU when none available
system.switch_cpus1.iq.fu_full::FloatSqrt            0      0.00%     79.34% # attempts to use FU when none available
system.switch_cpus1.iq.fu_full::SimdAdd             0      0.00%     79.34% # attempts to use FU when none available
system.switch_cpus1.iq.fu_full::SimdAddAcc            0      0.00%     79.34% # attempts to use FU when none available
system.switch_cpus1.iq.fu_full::SimdAlu             0      0.00%     79.34% # attempts to use FU when none available
system.switch_cpus1.iq.fu_full::SimdCmp             0      0.00%     79.34% # attempts to use FU when none available
system.switch_cpus1.iq.fu_full::SimdCvt             0      0.00%     79.34% # attempts to use FU when none available
system.switch_cpus1.iq.fu_full::SimdMisc            0      0.00%     79.34% # attempts to use FU when none available
system.switch_cpus1.iq.fu_full::SimdMult            0      0.00%     79.34% # attempts to use FU when none available
system.switch_cpus1.iq.fu_full::SimdMultAcc            0      0.00%     79.34% # attempts to use FU when none available
system.switch_cpus1.iq.fu_full::SimdShift            0      0.00%     79.34% # attempts to use FU when none available
system.switch_cpus1.iq.fu_full::SimdShiftAcc            0      0.00%     79.34% # attempts to use FU when none available
system.switch_cpus1.iq.fu_full::SimdSqrt            0      0.00%     79.34% # attempts to use FU when none available
system.switch_cpus1.iq.fu_full::SimdFloatAdd            0      0.00%     79.34% # attempts to use FU when none available
system.switch_cpus1.iq.fu_full::SimdFloatAlu            0      0.00%     79.34% # attempts to use FU when none available
system.switch_cpus1.iq.fu_full::SimdFloatCmp            0      0.00%     79.34% # attempts to use FU when none available
system.switch_cpus1.iq.fu_full::SimdFloatCvt            0      0.00%     79.34% # attempts to use FU when none available
system.switch_cpus1.iq.fu_full::SimdFloatDiv            0      0.00%     79.34% # attempts to use FU when none available
system.switch_cpus1.iq.fu_full::SimdFloatMisc            0      0.00%     79.34% # attempts to use FU when none available
system.switch_cpus1.iq.fu_full::SimdFloatMult            0      0.00%     79.34% # attempts to use FU when none available
system.switch_cpus1.iq.fu_full::SimdFloatMultAcc            0      0.00%     79.34% # attempts to use FU when none available
system.switch_cpus1.iq.fu_full::SimdFloatSqrt            0      0.00%     79.34% # attempts to use FU when none available
system.switch_cpus1.iq.fu_full::MemRead         15083     10.42%     89.77% # attempts to use FU when none available
system.switch_cpus1.iq.fu_full::MemWrite        14809     10.23%    100.00% # attempts to use FU when none available
system.switch_cpus1.iq.fu_full::IprAccess            0      0.00%    100.00% # attempts to use FU when none available
system.switch_cpus1.iq.fu_full::InstPrefetch            0      0.00%    100.00% # attempts to use FU when none available
system.switch_cpus1.iq.FU_type_0::No_OpClass            0      0.00%      0.00% # Type of FU issued
system.switch_cpus1.iq.FU_type_0::IntAlu     13956900     84.25%     84.25% # Type of FU issued
system.switch_cpus1.iq.FU_type_0::IntMult       226348      1.37%     85.62% # Type of FU issued
system.switch_cpus1.iq.FU_type_0::IntDiv            0      0.00%     85.62% # Type of FU issued
system.switch_cpus1.iq.FU_type_0::FloatAdd            0      0.00%     85.62% # Type of FU issued
system.switch_cpus1.iq.FU_type_0::FloatCmp            0      0.00%     85.62% # Type of FU issued
system.switch_cpus1.iq.FU_type_0::FloatCvt            0      0.00%     85.62% # Type of FU issued
system.switch_cpus1.iq.FU_type_0::FloatMult            0      0.00%     85.62% # Type of FU issued
system.switch_cpus1.iq.FU_type_0::FloatDiv            0      0.00%     85.62% # Type of FU issued
system.switch_cpus1.iq.FU_type_0::FloatSqrt            0      0.00%     85.62% # Type of FU issued
[...]
system.cpu7.icache.ReadReq_avg_miss_latency::total 823840.303571                       # average ReadReq miss latency
system.cpu7.icache.demand_avg_miss_latency::switch_cpus7.inst 823840.303571                       # average overall miss latency
system.cpu7.icache.demand_avg_miss_latency::total 823840.303571                       # average overall miss latency
system.cpu7.icache.overall_avg_miss_latency::switch_cpus7.inst 823840.303571                       # average overall miss latency
system.cpu7.icache.overall_avg_miss_latency::total 823840.303571                       # average overall miss latency
system.cpu7.icache.blocked_cycles::no_mshrs            0                       # number of cycles access was blocked
system.cpu7.icache.blocked_cycles::no_targets            0                       # number of cycles access was blocked
system.cpu7.icache.blocked::no_mshrs                0                       # number of cycles access was blocked
system.cpu7.icache.blocked::no_targets              0                       # number of cycles access was blocked
system.cpu7.icache.avg_blocked_cycles::no_mshrs          nan                       # average number of cycles each access was blocked
system.cpu7.icache.avg_blocked_cycles::no_targets          nan                       # average number of cycles each access was blocked
system.cpu7.icache.fast_writes                      0                       # number of fast writes performed
system.cpu7.icache.cache_copies                     0                       # number of cache copies performed
system.cpu7.icache.ReadReq_mshr_hits::switch_cpus7.inst           11                       # number of ReadReq MSHR hits
system.cpu7.icache.ReadReq_mshr_hits::total           11                       # number of ReadReq MSHR hits
system.cpu7.icache.demand_mshr_hits::switch_cpus7.inst           11                       # number of demand (read+write) MSHR hits
system.cpu7.icache.demand_mshr_hits::total           11                       # number of demand (read+write) MSHR hits
system.cpu7.icache.overall_mshr_hits::switch_cpus7.inst           11                       # number of overall MSHR hits
system.cpu7.icache.overall_mshr_hits::total           11                       # number of overall MSHR hits
system.cpu7.icache.ReadReq_mshr_misses::switch_cpus7.inst           45                       # number of ReadReq MSHR misses
system.cpu7.icache.ReadReq_mshr_misses::total           45                       # number of ReadReq MSHR misses
system.cpu7.icache.demand_mshr_misses::switch_cpus7.inst           45                       # number of demand (read+write) MSHR misses
system.cpu7.icache.demand_mshr_misses::total           45                       # number of demand (read+write) MSHR misses
system.cpu7.icache.overall_mshr_misses::switch_cpus7.inst           45                       # number of overall MSHR misses
system.cpu7.icache.overall_mshr_misses::total           45                       # number of overall MSHR misses
system.cpu7.icache.ReadReq_mshr_miss_latency::switch_cpus7.inst     39726470                       # number of ReadReq MSHR miss cycles
system.cpu7.icache.ReadReq_mshr_miss_latency::total     39726470                       # number of ReadReq MSHR miss cycles
system.cpu7.icache.demand_mshr_miss_latency::switch_cpus7.inst     39726470                       # number of demand (read+write) MSHR miss cycles
system.cpu7.icache.demand_mshr_miss_latency::total     39726470                       # number of demand (read+write) MSHR miss cycles
system.cpu7.icache.overall_mshr_miss_latency::switch_cpus7.inst     39726470                       # number of overall MSHR miss cycles
system.cpu7.icache.overall_mshr_miss_latency::total     39726470                       # number of overall MSHR miss cycles
system.cpu7.icache.ReadReq_mshr_miss_rate::switch_cpus7.inst     0.000032                       # mshr miss rate for ReadReq accesses
system.cpu7.icache.ReadReq_mshr_miss_rate::total     0.000032                       # mshr miss rate for ReadReq accesses
system.cpu7.icache.demand_mshr_miss_rate::switch_cpus7.inst     0.000032                       # mshr miss rate for demand accesses
system.cpu7.icache.demand_mshr_miss_rate::total     0.000032                       # mshr miss rate for demand accesses
system.cpu7.icache.overall_mshr_miss_rate::switch_cpus7.inst     0.000032                       # mshr miss rate for overall accesses
system.cpu7.icache.overall_mshr_miss_rate::total     0.000032                       # mshr miss rate for overall accesses
system.cpu7.icache.ReadReq_avg_mshr_miss_latency::switch_cpus7.inst 882810.444444                       # average ReadReq mshr miss latency
system.cpu7.icache.ReadReq_avg_mshr_miss_latency::total 882810.444444                       # average ReadReq mshr miss latency
system.cpu7.icache.demand_avg_mshr_miss_latency::switch_cpus7.inst 882810.444444                       # average overall mshr miss latency
system.cpu7.icache.demand_avg_mshr_miss_latency::total 882810.444444                       # average overall mshr miss latency
system.cpu7.icache.overall_avg_mshr_miss_latency::switch_cpus7.inst 882810.444444                       # average overall mshr miss latency
system.cpu7.icache.overall_avg_mshr_miss_latency::total 882810.444444                       # average overall mshr miss latency
system.cpu7.icache.no_allocate_misses               0                       # Number of misses that were no-allocate
system.cpu7.dcache.replacements                  4616                       # number of replacements
system.cpu7.dcache.tagsinuse                      256                       # Cycle average of tags in use
system.cpu7.dcache.total_refs               163997011                       # Total number of references to valid blocks.
system.cpu7.dcache.sampled_refs                  4872                       # Sample count of references to valid blocks.
system.cpu7.dcache.avg_refs              33661.127053                       # Average number of references to valid blocks.
system.cpu7.dcache.warmup_cycle                     0                       # Cycle when the warmup percentage was hit.
system.cpu7.dcache.occ_blocks::switch_cpus7.data   221.710820                       # Average occupied blocks per requestor
system.cpu7.dcache.occ_blocks::cpu7.data    34.289180                       # Average occupied blocks per requestor
system.cpu7.dcache.occ_percent::switch_cpus7.data     0.866058                       # Average percentage of cache occupancy
system.cpu7.dcache.occ_percent::cpu7.data     0.133942                       # Average percentage of cache occupancy
system.cpu7.dcache.occ_percent::total               1                       # Average percentage of cache occupancy
system.cpu7.dcache.ReadReq_hits::switch_cpus7.data       979593                       # number of ReadReq hits
system.cpu7.dcache.ReadReq_hits::total         979593                       # number of ReadReq hits
system.cpu7.dcache.WriteReq_hits::switch_cpus7.data       822564                       # number of WriteReq hits
system.cpu7.dcache.WriteReq_hits::total        822564                       # number of WriteReq hits
system.cpu7.dcache.LoadLockedReq_hits::switch_cpus7.data         2006                       # number of LoadLockedReq hits
system.cpu7.dcache.LoadLockedReq_hits::total         2006                       # number of LoadLockedReq hits
system.cpu7.dcache.StoreCondReq_hits::switch_cpus7.data         1979                       # number of StoreCondReq hits
system.cpu7.dcache.StoreCondReq_hits::total         1979                       # number of StoreCondReq hits
system.cpu7.dcache.demand_hits::switch_cpus7.data      1802157                       # number of demand (read+write) hits
system.cpu7.dcache.demand_hits::total         1802157                       # number of demand (read+write) hits
system.cpu7.dcache.overall_hits::switch_cpus7.data      1802157                       # number of overall hits
system.cpu7.dcache.overall_hits::total        1802157                       # number of overall hits
system.cpu7.dcache.ReadReq_misses::switch_cpus7.data        14770                       # number of ReadReq misses
system.cpu7.dcache.ReadReq_misses::total        14770                       # number of ReadReq misses
system.cpu7.dcache.WriteReq_misses::switch_cpus7.data          104                       # number of WriteReq misses
system.cpu7.dcache.WriteReq_misses::total          104                       # number of WriteReq misses
system.cpu7.dcache.demand_misses::switch_cpus7.data        14874                       # number of demand (read+write) misses
system.cpu7.dcache.demand_misses::total         14874                       # number of demand (read+write) misses
system.cpu7.dcache.overall_misses::switch_cpus7.data        14874                       # number of overall misses
system.cpu7.dcache.overall_misses::total        14874                       # number of overall misses
system.cpu7.dcache.ReadReq_miss_latency::switch_cpus7.data   2758358199                       # number of ReadReq miss cycles
system.cpu7.dcache.ReadReq_miss_latency::total   2758358199                       # number of ReadReq miss cycles
system.cpu7.dcache.WriteReq_miss_latency::switch_cpus7.data      8375140                       # number of WriteReq miss cycles
system.cpu7.dcache.WriteReq_miss_latency::total      8375140                       # number of WriteReq miss cycles
system.cpu7.dcache.demand_miss_latency::switch_cpus7.data   2766733339                       # number of demand (read+write) miss cycles
system.cpu7.dcache.demand_miss_latency::total   2766733339                       # number of demand (read+write) miss cycles
system.cpu7.dcache.overall_miss_latency::switch_cpus7.data   2766733339                       # number of overall miss cycles
system.cpu7.dcache.overall_miss_latency::total   2766733339                       # number of overall miss cycles
system.cpu7.dcache.ReadReq_accesses::switch_cpus7.data       994363                       # number of ReadReq accesses(hits+misses)
system.cpu7.dcache.ReadReq_accesses::total       994363                       # number of ReadReq accesses(hits+misses)
system.cpu7.dcache.WriteReq_accesses::switch_cpus7.data       822668                       # number of WriteReq accesses(hits+misses)
system.cpu7.dcache.WriteReq_accesses::total       822668                       # number of WriteReq accesses(hits+misses)
system.cpu7.dcache.LoadLockedReq_accesses::switch_cpus7.data         2006                       # number of LoadLockedReq accesses(hits+misses)
system.cpu7.dcache.LoadLockedReq_accesses::total         2006                       # number of LoadLockedReq accesses(hits+misses)
system.cpu7.dcache.StoreCondReq_accesses::switch_cpus7.data         1979                       # number of StoreCondReq accesses(hits+misses)
system.cpu7.dcache.StoreCondReq_accesses::total         1979                       # number of StoreCondReq accesses(hits+misses)
system.cpu7.dcache.demand_accesses::switch_cpus7.data      1817031                       # number of demand (read+write) accesses
system.cpu7.dcache.demand_accesses::total      1817031                       # number of demand (read+write) accesses
system.cpu7.dcache.overall_accesses::switch_cpus7.data      1817031                       # number of overall (read+write) accesses
system.cpu7.dcache.overall_accesses::total      1817031                       # number of overall (read+write) accesses
system.cpu7.dcache.ReadReq_miss_rate::switch_cpus7.data     0.014854                       # miss rate for ReadReq accesses
system.cpu7.dcache.ReadReq_miss_rate::total     0.014854                       # miss rate for ReadReq accesses
system.cpu7.dcache.WriteReq_miss_rate::switch_cpus7.data     0.000126                       # miss rate for WriteReq accesses
system.cpu7.dcache.WriteReq_miss_rate::total     0.000126                       # miss rate for WriteReq accesses
system.cpu7.dcache.demand_miss_rate::switch_cpus7.data     0.008186                       # miss rate for demand accesses
system.cpu7.dcache.demand_miss_rate::total     0.008186                       # miss rate for demand accesses
system.cpu7.dcache.overall_miss_rate::switch_cpus7.data     0.008186                       # miss rate for overall accesses
system.cpu7.dcache.overall_miss_rate::total     0.008186                       # miss rate for overall accesses
system.cpu7.dcache.ReadReq_avg_miss_latency::switch_cpus7.data 186754.109614                       # average ReadReq miss latency
system.cpu7.dcache.ReadReq_avg_miss_latency::total 186754.109614                       # average ReadReq miss latency
system.cpu7.dcache.WriteReq_avg_miss_latency::switch_cpus7.data 80530.192308                       # average WriteReq miss latency
system.cpu7.dcache.WriteReq_avg_miss_latency::total 80530.192308                       # average WriteReq miss latency
system.cpu7.dcache.demand_avg_miss_latency::switch_cpus7.data 186011.384900                       # average overall miss latency
system.cpu7.dcache.demand_avg_miss_latency::total 186011.384900                       # average overall miss latency
system.cpu7.dcache.overall_avg_miss_latency::switch_cpus7.data 186011.384900                       # average overall miss latency
system.cpu7.dcache.overall_avg_miss_latency::total 186011.384900                       # average overall miss latency
system.cpu7.dcache.blocked_cycles::no_mshrs            0                       # number of cycles access was blocked
system.cpu7.dcache.blocked_cycles::no_targets            0                       # number of cycles access was blocked
system.cpu7.dcache.blocked::no_mshrs                0                       # number of cycles access was blocked
system.cpu7.dcache.blocked::no_targets              0                       # number of cycles access was blocked
system.cpu7.dcache.avg_blocked_cycles::no_mshrs          nan                       # average number of cycles each access was blocked
system.cpu7.dcache.avg_blocked_cycles::no_targets          nan                       # average number of cycles each access was blocked
system.cpu7.dcache.fast_writes                      0                       # number of fast writes performed
system.cpu7.dcache.cache_copies                     0                       # number of cache copies performed
system.cpu7.dcache.writebacks::writebacks         1124                       # number of writebacks
system.cpu7.dcache.writebacks::total             1124                       # number of writebacks
system.cpu7.dcache.ReadReq_mshr_hits::switch_cpus7.data        10172                       # number of ReadReq MSHR hits
system.cpu7.dcache.ReadReq_mshr_hits::total        10172                       # number of ReadReq MSHR hits
system.cpu7.dcache.WriteReq_mshr_hits::switch_cpus7.data           86                       # number of WriteReq MSHR hits
system.cpu7.dcache.WriteReq_mshr_hits::total           86                       # number of WriteReq MSHR hits
system.cpu7.dcache.demand_mshr_hits::switch_cpus7.data        10258                       # number of demand (read+write) MSHR hits
system.cpu7.dcache.demand_mshr_hits::total        10258                       # number of demand (read+write) MSHR hits
system.cpu7.dcache.overall_mshr_hits::switch_cpus7.data        10258                       # number of overall MSHR hits
system.cpu7.dcache.overall_mshr_hits::total        10258                       # number of overall MSHR hits
system.cpu7.dcache.ReadReq_mshr_misses::switch_cpus7.data         4598                       # number of ReadReq MSHR misses
system.cpu7.dcache.ReadReq_mshr_misses::total         4598                       # number of ReadReq MSHR misses
system.cpu7.dcache.WriteReq_mshr_misses::switch_cpus7.data           18                       # number of WriteReq MSHR misses
system.cpu7.dcache.WriteReq_mshr_misses::total           18                       # number of WriteReq MSHR misses
system.cpu7.dcache.demand_mshr_misses::switch_cpus7.data         4616                       # number of demand (read+write) MSHR misses
system.cpu7.dcache.demand_mshr_misses::total         4616                       # number of demand (read+write) MSHR misses
system.cpu7.dcache.overall_mshr_misses::switch_cpus7.data         4616                       # number of overall MSHR misses
system.cpu7.dcache.overall_mshr_misses::total         4616                       # number of overall MSHR misses
system.cpu7.dcache.ReadReq_mshr_miss_latency::switch_cpus7.data    674596119                       # number of ReadReq MSHR miss cycles
system.cpu7.dcache.ReadReq_mshr_miss_latency::total    674596119                       # number of ReadReq MSHR miss cycles
system.cpu7.dcache.WriteReq_mshr_miss_latency::switch_cpus7.data      1156077                       # number of WriteReq MSHR miss cycles
system.cpu7.dcache.WriteReq_mshr_miss_latency::total      1156077                       # number of WriteReq MSHR miss cycles
system.cpu7.dcache.demand_mshr_miss_latency::switch_cpus7.data    675752196                       # number of demand (read+write) MSHR miss cycles
system.cpu7.dcache.demand_mshr_miss_latency::total    675752196                       # number of demand (read+write) MSHR miss cycles
system.cpu7.dcache.overall_mshr_miss_latency::switch_cpus7.data    675752196                       # number of overall MSHR miss cycles
system.cpu7.dcache.overall_mshr_miss_latency::total    675752196                       # number of overall MSHR miss cycles
system.cpu7.dcache.ReadReq_mshr_miss_rate::switch_cpus7.data     0.004624                       # mshr miss rate for ReadReq accesses
system.cpu7.dcache.ReadReq_mshr_miss_rate::total     0.004624                       # mshr miss rate for ReadReq accesses
system.cpu7.dcache.WriteReq_mshr_miss_rate::switch_cpus7.data     0.000022                       # mshr miss rate for WriteReq accesses
system.cpu7.dcache.WriteReq_mshr_miss_rate::total     0.000022                       # mshr miss rate for WriteReq accesses
system.cpu7.dcache.demand_mshr_miss_rate::switch_cpus7.data     0.002540                       # mshr miss rate for demand accesses
system.cpu7.dcache.demand_mshr_miss_rate::total     0.002540                       # mshr miss rate for demand accesses
system.cpu7.dcache.overall_mshr_miss_rate::switch_cpus7.data     0.002540                       # mshr miss rate for overall accesses
system.cpu7.dcache.overall_mshr_miss_rate::total     0.002540                       # mshr miss rate for overall accesses
system.cpu7.dcache.ReadReq_avg_mshr_miss_latency::switch_cpus7.data 146715.119400                       # average ReadReq mshr miss latency
system.cpu7.dcache.ReadReq_avg_mshr_miss_latency::total 146715.119400                       # average ReadReq mshr miss latency
system.cpu7.dcache.WriteReq_avg_mshr_miss_latency::switch_cpus7.data 64226.500000                       # average WriteReq mshr miss latency
system.cpu7.dcache.WriteReq_avg_mshr_miss_latency::total 64226.500000                       # average WriteReq mshr miss latency
system.cpu7.dcache.demand_avg_mshr_miss_latency::switch_cpus7.data 146393.456672                       # average overall mshr miss latency
system.cpu7.dcache.demand_avg_mshr_miss_latency::total 146393.456672                       # average overall mshr miss latency
system.cpu7.dcache.overall_avg_mshr_miss_latency::switch_cpus7.data 146393.456672                       # average overall mshr miss latency
system.cpu7.dcache.overall_avg_mshr_miss_latency::total 146393.456672                       # average overall mshr miss latency
system.cpu7.dcache.no_allocate_misses               0                       # Number of misses that were no-allocate

---------- End Simulation Statistics   ----------
