
---------- Begin Simulation Statistics ----------
sim_seconds                                  0.106117                       # Number of seconds simulated
sim_ticks                                106117021173                       # Number of ticks simulated
final_tick                               630944614710                       # Number of ticks from beginning of simulation (restored from checkpoints and never reset)
sim_freq                                 1000000000000                       # Frequency of simulated ticks
host_inst_rate                                 165004                       # Simulator instruction rate (inst/s)
host_op_rate                                   215186                       # Simulator op (including micro ops) rate (op/s)
host_tick_rate                                2082158                       # Simulator tick rate (ticks/s)
host_mem_usage                               67354840                       # Number of bytes of host memory used
host_seconds                                 50964.93                       # Real time elapsed on the host
sim_insts                                  8409420974                       # Number of instructions simulated
sim_ops                                   10966934498                       # Number of ops (including micro ops) simulated
system.physmem.bytes_read::switch_cpus0.inst         4864                       # Number of bytes read from this memory
system.physmem.bytes_read::switch_cpus0.data      2769664                       # Number of bytes read from this memory
system.physmem.bytes_read::switch_cpus1.inst         4480                       # Number of bytes read from this memory
system.physmem.bytes_read::switch_cpus1.data      1936768                       # Number of bytes read from this memory
system.physmem.bytes_read::switch_cpus2.inst         4480                       # Number of bytes read from this memory
system.physmem.bytes_read::switch_cpus2.data      1021568                       # Number of bytes read from this memory
system.physmem.bytes_read::switch_cpus3.inst         4352                       # Number of bytes read from this memory
system.physmem.bytes_read::switch_cpus3.data      1929088                       # Number of bytes read from this memory
system.physmem.bytes_read::switch_cpus4.inst         4352                       # Number of bytes read from this memory
system.physmem.bytes_read::switch_cpus4.data      1941120                       # Number of bytes read from this memory
system.physmem.bytes_read::switch_cpus5.inst         4864                       # Number of bytes read from this memory
system.physmem.bytes_read::switch_cpus5.data      2784640                       # Number of bytes read from this memory
system.physmem.bytes_read::switch_cpus6.inst         4864                       # Number of bytes read from this memory
system.physmem.bytes_read::switch_cpus6.data      1848960                       # Number of bytes read from this memory
system.physmem.bytes_read::switch_cpus7.inst         4480                       # Number of bytes read from this memory
system.physmem.bytes_read::switch_cpus7.data      1934080                       # Number of bytes read from this memory
system.physmem.bytes_read::total             16202624                       # Number of bytes read from this memory
system.physmem.bytes_inst_read::switch_cpus0.inst         4864                       # Number of instructions bytes read from this memory
system.physmem.bytes_inst_read::switch_cpus1.inst         4480                       # Number of instructions bytes read from this memory
system.physmem.bytes_inst_read::switch_cpus2.inst         4480                       # Number of instructions bytes read from this memory
system.physmem.bytes_inst_read::switch_cpus3.inst         4352                       # Number of instructions bytes read from this memory
system.physmem.bytes_inst_read::switch_cpus4.inst         4352                       # Number of instructions bytes read from this memory
system.physmem.bytes_inst_read::switch_cpus5.inst         4864                       # Number of instructions bytes read from this memory
system.physmem.bytes_inst_read::switch_cpus6.inst         4864                       # Number of instructions bytes read from this memory
system.physmem.bytes_inst_read::switch_cpus7.inst         4480                       # Number of instructions bytes read from this memory
system.physmem.bytes_inst_read::total           36736                       # Number of instructions bytes read from this memory
system.physmem.bytes_written::writebacks      3876096                       # Number of bytes written to this memory
system.physmem.bytes_written::total           3876096                       # Number of bytes written to this memory
system.physmem.num_reads::switch_cpus0.inst           38                       # Number of read requests responded to by this memory
system.physmem.num_reads::switch_cpus0.data        21638                       # Number of read requests responded to by this memory
system.physmem.num_reads::switch_cpus1.inst           35                       # Number of read requests responded to by this memory
system.physmem.num_reads::switch_cpus1.data        15131                       # Number of read requests responded to by this memory
system.physmem.num_reads::switch_cpus2.inst           35                       # Number of read requests responded to by this memory
system.physmem.num_reads::switch_cpus2.data         7981                       # Number of read requests responded to by this memory
system.physmem.num_reads::switch_cpus3.inst           34                       # Number of read requests responded to by this memory
system.physmem.num_reads::switch_cpus3.data        15071                       # Number of read requests responded to by this memory
system.physmem.num_reads::switch_cpus4.inst           34                       # Number of read requests responded to by this memory
system.physmem.num_reads::switch_cpus4.data        15165                       # Number of read requests responded to by this memory
system.physmem.num_reads::switch_cpus5.inst           38                       # Number of read requests responded to by this memory
system.physmem.num_reads::switch_cpus5.data        21755                       # Number of read requests responded to by this memory
system.physmem.num_reads::switch_cpus6.inst           38                       # Number of read requests responded to by this memory
system.physmem.num_reads::switch_cpus6.data        14445                       # Number of read requests responded to by this memory
system.physmem.num_reads::switch_cpus7.inst           35                       # Number of read requests responded to by this memory
system.physmem.num_reads::switch_cpus7.data        15110                       # Number of read requests responded to by this memory
system.physmem.num_reads::total                126583                       # Number of read requests responded to by this memory
system.physmem.num_writes::writebacks           30282                       # Number of write requests responded to by this memory
system.physmem.num_writes::functional               0                       # Number of write requests responded to by this memory
system.physmem.num_writes::interrupt                0                       # Number of write requests responded to by this memory
system.physmem.num_writes::switch_cpus0.dtb.walker            0                       # Number of write requests responded to by this memory
system.physmem.num_writes::switch_cpus0.itb.walker            0                       # Number of write requests responded to by this memory
system.physmem.num_writes::switch_cpus0.inst            0                       # Number of write requests responded to by this memory
system.physmem.num_writes::switch_cpus0.data            0                       # Number of write requests responded to by this memory
system.physmem.num_writes::switch_cpus1.dtb.walker            0                       # Number of write requests responded to by this memory
system.physmem.num_writes::switch_cpus1.itb.walker            0                       # Number of write requests responded to by this memory
system.physmem.num_writes::switch_cpus1.inst            0                       # Number of write requests responded to by this memory
system.physmem.num_writes::switch_cpus1.data            0                       # Number of write requests responded to by this memory
system.physmem.num_writes::switch_cpus2.dtb.walker            0                       # Number of write requests responded to by this memory
system.physmem.num_writes::switch_cpus2.itb.walker            0                       # Number of write requests responded to by this memory
system.physmem.num_writes::switch_cpus2.inst            0                       # Number of write requests responded to by this memory
system.physmem.num_writes::switch_cpus2.data            0                       # Number of write requests responded to by this memory
system.physmem.num_writes::switch_cpus3.dtb.walker            0                       # Number of write requests responded to by this memory
system.physmem.num_writes::switch_cpus3.itb.walker            0                       # Number of write requests responded to by this memory
system.physmem.num_writes::switch_cpus3.inst            0                       # Number of write requests responded to by this memory
system.physmem.num_writes::switch_cpus3.data            0                       # Number of write requests responded to by this memory
system.physmem.num_writes::switch_cpus4.dtb.walker            0                       # Number of write requests responded to by this memory
system.physmem.num_writes::switch_cpus4.itb.walker            0                       # Number of write requests responded to by this memory
system.physmem.num_writes::switch_cpus4.inst            0                       # Number of write requests responded to by this memory
system.physmem.num_writes::switch_cpus4.data            0                       # Number of write requests responded to by this memory
system.physmem.num_writes::switch_cpus5.dtb.walker            0                       # Number of write requests responded to by this memory
system.physmem.num_writes::switch_cpus5.itb.walker            0                       # Number of write requests responded to by this memory
system.physmem.num_writes::switch_cpus5.inst            0                       # Number of write requests responded to by this memory
system.physmem.num_writes::switch_cpus5.data            0                       # Number of write requests responded to by this memory
system.physmem.num_writes::switch_cpus6.dtb.walker            0                       # Number of write requests responded to by this memory
system.physmem.num_writes::switch_cpus6.itb.walker            0                       # Number of write requests responded to by this memory
system.physmem.num_writes::switch_cpus6.inst            0                       # Number of write requests responded to by this memory
system.physmem.num_writes::switch_cpus6.data            0                       # Number of write requests responded to by this memory
system.physmem.num_writes::switch_cpus7.dtb.walker            0                       # Number of write requests responded to by this memory
system.physmem.num_writes::switch_cpus7.itb.walker            0                       # Number of write requests responded to by this memory
system.physmem.num_writes::switch_cpus7.inst            0                       # Number of write requests responded to by this memory
system.physmem.num_writes::switch_cpus7.data            0                       # Number of write requests responded to by this memory
system.physmem.num_writes::cpu0.dtb.walker            0                       # Number of write requests responded to by this memory
system.physmem.num_writes::cpu0.itb.walker            0                       # Number of write requests responded to by this memory
system.physmem.num_writes::cpu0.inst                0                       # Number of write requests responded to by this memory
system.physmem.num_writes::cpu0.data                0                       # Number of write requests responded to by this memory
system.physmem.num_writes::cpu1.dtb.walker            0                       # Number of write requests responded to by this memory
system.physmem.num_writes::cpu1.itb.walker            0                       # Number of write requests responded to by this memory
system.physmem.num_writes::cpu1.inst                0                       # Number of write requests responded to by this memory
system.physmem.num_writes::cpu1.data                0                       # Number of write requests responded to by this memory
system.physmem.num_writes::cpu2.dtb.walker            0                       # Number of write requests responded to by this memory
system.physmem.num_writes::cpu2.itb.walker            0                       # Number of write requests responded to by this memory
system.physmem.num_writes::cpu2.inst                0                       # Number of write requests responded to by this memory
system.physmem.num_writes::cpu2.data                0                       # Number of write requests responded to by this memory
system.physmem.num_writes::cpu3.dtb.walker            0                       # Number of write requests responded to by this memory
system.physmem.num_writes::cpu3.itb.walker            0                       # Number of write requests responded to by this memory
system.physmem.num_writes::cpu3.inst                0                       # Number of write requests responded to by this memory
system.physmem.num_writes::cpu3.data                0                       # Number of write requests responded to by this memory
system.physmem.num_writes::cpu4.dtb.walker            0                       # Number of write requests responded to by this memory
system.physmem.num_writes::cpu4.itb.walker            0                       # Number of write requests responded to by this memory
system.physmem.num_writes::cpu4.inst                0                       # Number of write requests responded to by this memory
system.physmem.num_writes::cpu4.data                0                       # Number of write requests responded to by this memory
system.physmem.num_writes::cpu5.dtb.walker            0                       # Number of write requests responded to by this memory
system.physmem.num_writes::cpu5.itb.walker            0                       # Number of write requests responded to by this memory
system.physmem.num_writes::cpu5.inst                0                       # Number of write requests responded to by this memory
system.physmem.num_writes::cpu5.data                0                       # Number of write requests responded to by this memory
system.physmem.num_writes::cpu6.dtb.walker            0                       # Number of write requests responded to by this memory
system.physmem.num_writes::cpu6.itb.walker            0                       # Number of write requests responded to by this memory
system.physmem.num_writes::cpu6.inst                0                       # Number of write requests responded to by this memory
system.physmem.num_writes::cpu6.data                0                       # Number of write requests responded to by this memory
system.physmem.num_writes::cpu7.dtb.walker            0                       # Number of write requests responded to by this memory
system.physmem.num_writes::cpu7.itb.walker            0                       # Number of write requests responded to by this memory
system.physmem.num_writes::cpu7.inst                0                       # Number of write requests responded to by this memory
system.physmem.num_writes::cpu7.data                0                       # Number of write requests responded to by this memory
system.physmem.num_writes::total                30282                       # Number of write requests responded to by this memory
system.physmem.bw_read::switch_cpus0.inst        45836                       # Total read bandwidth from this memory (bytes/s)
system.physmem.bw_read::switch_cpus0.data     26100092                       # Total read bandwidth from this memory (bytes/s)
system.physmem.bw_read::switch_cpus1.inst        42218                       # Total read bandwidth from this memory (bytes/s)
system.physmem.bw_read::switch_cpus1.data     18251247                       # Total read bandwidth from this memory (bytes/s)
system.physmem.bw_read::switch_cpus2.inst        42218                       # Total read bandwidth from this memory (bytes/s)
system.physmem.bw_read::switch_cpus2.data      9626806                       # Total read bandwidth from this memory (bytes/s)
system.physmem.bw_read::switch_cpus3.inst        41011                       # Total read bandwidth from this memory (bytes/s)
system.physmem.bw_read::switch_cpus3.data     18178874                       # Total read bandwidth from this memory (bytes/s)
system.physmem.bw_read::switch_cpus4.inst        41011                       # Total read bandwidth from this memory (bytes/s)
system.physmem.bw_read::switch_cpus4.data     18292259                       # Total read bandwidth from this memory (bytes/s)
system.physmem.bw_read::switch_cpus5.inst        45836                       # Total read bandwidth from this memory (bytes/s)
system.physmem.bw_read::switch_cpus5.data     26241219                       # Total read bandwidth from this memory (bytes/s)
system.physmem.bw_read::switch_cpus6.inst        45836                       # Total read bandwidth from this memory (bytes/s)
system.physmem.bw_read::switch_cpus6.data     17423783                       # Total read bandwidth from this memory (bytes/s)
system.physmem.bw_read::switch_cpus7.inst        42218                       # Total read bandwidth from this memory (bytes/s)
system.physmem.bw_read::switch_cpus7.data     18225917                       # Total read bandwidth from this memory (bytes/s)
system.physmem.bw_read::total               152686382                       # Total read bandwidth from this memory (bytes/s)
system.physmem.bw_inst_read::switch_cpus0.inst        45836                       # Instruction read bandwidth from this memory (bytes/s)
system.physmem.bw_inst_read::switch_cpus1.inst        42218                       # Instruction read bandwidth from this memory (bytes/s)
system.physmem.bw_inst_read::switch_cpus2.inst        42218                       # Instruction read bandwidth from this memory (bytes/s)
system.physmem.bw_inst_read::switch_cpus3.inst        41011                       # Instruction read bandwidth from this memory (bytes/s)
system.physmem.bw_inst_read::switch_cpus4.inst        41011                       # Instruction read bandwidth from this memory (bytes/s)
system.physmem.bw_inst_read::switch_cpus5.inst        45836                       # Instruction read bandwidth from this memory (bytes/s)
system.physmem.bw_inst_read::switch_cpus6.inst        45836                       # Instruction read bandwidth from this memory (bytes/s)
system.physmem.bw_inst_read::switch_cpus7.inst        42218                       # Instruction read bandwidth from this memory (bytes/s)
system.physmem.bw_inst_read::total             346184                       # Instruction read bandwidth from this memory (bytes/s)
system.physmem.bw_write::writebacks          36526619                       # Write bandwidth from this memory (bytes/s)
system.physmem.bw_write::total               36526619                       # Write bandwidth from this memory (bytes/s)
system.physmem.bw_total::writebacks          36526619                       # Total bandwidth to/from this memory (bytes/s)
system.physmem.bw_total::switch_cpus0.inst        45836                       # Total bandwidth to/from this memory (bytes/s)
system.physmem.bw_total::switch_cpus0.data     26100092                       # Total bandwidth to/from this memory (bytes/s)
system.physmem.bw_total::switch_cpus1.inst        42218                       # Total bandwidth to/from this memory (bytes/s)
system.physmem.bw_total::switch_cpus1.data     18251247                       # Total bandwidth to/from this memory (bytes/s)
system.physmem.bw_total::switch_cpus2.inst        42218                       # Total bandwidth to/from this memory (bytes/s)
system.physmem.bw_total::switch_cpus2.data      9626806                       # Total bandwidth to/from this memory (bytes/s)
system.physmem.bw_total::switch_cpus3.inst        41011                       # Total bandwidth to/from this memory (bytes/s)
system.physmem.bw_total::switch_cpus3.data     18178874                       # Total bandwidth to/from this memory (bytes/s)
system.physmem.bw_total::switch_cpus4.inst        41011                       # Total bandwidth to/from this memory (bytes/s)
system.physmem.bw_total::switch_cpus4.data     18292259                       # Total bandwidth to/from this memory (bytes/s)
system.physmem.bw_total::switch_cpus5.inst        45836                       # Total bandwidth to/from this memory (bytes/s)
system.physmem.bw_total::switch_cpus5.data     26241219                       # Total bandwidth to/from this memory (bytes/s)
system.physmem.bw_total::switch_cpus6.inst        45836                       # Total bandwidth to/from this memory (bytes/s)
system.physmem.bw_total::switch_cpus6.data     17423783                       # Total bandwidth to/from this memory (bytes/s)
system.physmem.bw_total::switch_cpus7.inst        42218                       # Total bandwidth to/from this memory (bytes/s)
system.physmem.bw_total::switch_cpus7.data     18225917                       # Total bandwidth to/from this memory (bytes/s)
system.physmem.bw_total::total              189213001                       # Total bandwidth to/from this memory (bytes/s)
system.switch_cpus0.dtb.inst_hits                   0                       # ITB inst hits
system.switch_cpus0.dtb.inst_misses                 0                       # ITB inst misses
system.switch_cpus0.dtb.read_hits                   0                       # DTB read hits
system.switch_cpus0.dtb.read_misses                 0                       # DTB read misses
system.switch_cpus0.dtb.write_hits                  0                       # DTB write hits
system.switch_cpus0.dtb.write_misses                0                       # DTB write misses
system.switch_cpus0.dtb.flush_tlb                   0                       # Number of times complete TLB was flushed
system.switch_cpus0.dtb.flush_tlb_mva               0                       # Number of times TLB was flushed by MVA
system.switch_cpus0.dtb.flush_tlb_mva_asid            0                       # Number of times TLB was flushed by MVA & ASID
system.switch_cpus0.dtb.flush_tlb_asid              0                       # Number of times TLB was flushed by ASID
system.switch_cpus0.dtb.flush_entries               0                       # Number of entries that have been flushed from TLB
system.switch_cpus0.dtb.align_faults                0                       # Number of TLB faults due to alignment restrictions
system.switch_cpus0.dtb.prefetch_faults             0                       # Number of TLB faults due to prefetch
system.switch_cpus0.dtb.domain_faults               0                       # Number of TLB faults due to domain restrictions
system.switch_cpus0.dtb.perms_faults                0                       # Number of TLB faults due to permissions restrictions
system.switch_cpus0.dtb.read_accesses               0                       # DTB read accesses
system.switch_cpus0.dtb.write_accesses              0                       # DTB write accesses
system.switch_cpus0.dtb.inst_accesses               0                       # ITB inst accesses
system.switch_cpus0.dtb.hits                        0                       # DTB hits
system.switch_cpus0.dtb.misses                      0                       # DTB misses
system.switch_cpus0.dtb.accesses                    0                       # DTB accesses
system.switch_cpus0.itb.inst_hits                   0                       # ITB inst hits
system.switch_cpus0.itb.inst_misses                 0                       # ITB inst misses
system.switch_cpus0.itb.read_hits                   0                       # DTB read hits
system.switch_cpus0.itb.read_misses                 0                       # DTB read misses
system.switch_cpus0.itb.write_hits                  0                       # DTB write hits
system.switch_cpus0.itb.write_misses                0                       # DTB write misses
system.switch_cpus0.itb.flush_tlb                   0                       # Number of times complete TLB was flushed
system.switch_cpus0.itb.flush_tlb_mva               0                       # Number of times TLB was flushed by MVA
system.switch_cpus0.itb.flush_tlb_mva_asid            0                       # Number of times TLB was flushed by MVA & ASID
system.switch_cpus0.itb.flush_tlb_asid              0                       # Number of times TLB was flushed by ASID
system.switch_cpus0.itb.flush_entries               0                       # Number of entries that have been flushed from TLB
system.switch_cpus0.itb.align_faults                0                       # Number of TLB faults due to alignment restrictions
system.switch_cpus0.itb.prefetch_faults             0                       # Number of TLB faults due to prefetch
system.switch_cpus0.itb.domain_faults               0                       # Number of TLB faults due to domain restrictions
system.switch_cpus0.itb.perms_faults                0                       # Number of TLB faults due to permissions restrictions
system.switch_cpus0.itb.read_accesses               0                       # DTB read accesses
system.switch_cpus0.itb.write_accesses              0                       # DTB write accesses
system.switch_cpus0.itb.inst_accesses               0                       # ITB inst accesses
system.switch_cpus0.itb.hits                        0                       # DTB hits
system.switch_cpus0.itb.misses                      0                       # DTB misses
system.switch_cpus0.itb.accesses                    0                       # DTB accesses
system.cpu0.workload.num_syscalls                  52                       # Number of system calls
system.switch_cpus0.numCycles               254477270                       # number of cpu cycles simulated
system.switch_cpus0.numWorkItemsStarted             0                       # number of work items this cpu started
system.switch_cpus0.numWorkItemsCompleted            0                       # number of work items this cpu completed
system.switch_cpus0.BPredUnit.lookups        20730142                       # Number of BP lookups
system.switch_cpus0.BPredUnit.condPredicted     16951981                       # Number of conditional branches predicted
system.switch_cpus0.BPredUnit.condIncorrect      2021506                       # Number of conditional branches incorrect
system.switch_cpus0.BPredUnit.BTBLookups      8500097                       # Number of BTB lookups
system.switch_cpus0.BPredUnit.BTBHits         8169565                       # Number of BTB hits
system.switch_cpus0.BPredUnit.BTBCorrect            0                       # Number of correct BTB predictions (this stat may not work properly.
system.switch_cpus0.BPredUnit.usedRAS         2133467                       # Number of times the RAS was used to get a target.
system.switch_cpus0.BPredUnit.RASInCorrect        89738                       # Number of incorrect RAS predictions.
system.switch_cpus0.fetch.icacheStallCycles    201217387                       # Number of cycles fetch is stalled on an Icache miss
system.switch_cpus0.fetch.Insts             117685504                       # Number of instructions fetch has processed
system.switch_cpus0.fetch.Branches           20730142                       # Number of branches that fetch encountered
system.switch_cpus0.fetch.predictedBranches     10303032                       # Number of branches that fetch has predicted taken
system.switch_cpus0.fetch.Cycles             24648640                       # Number of cycles fetch has run and was not squashing or blocked
system.switch_cpus0.fetch.SquashCycles        5881623                       # Number of cycles fetch has spent squashing
system.switch_cpus0.fetch.BlockedCycles       3418727                       # Number of cycles fetch has spent blocked
system.switch_cpus0.fetch.CacheLines         12370653                       # Number of cache lines fetched
system.switch_cpus0.fetch.IcacheSquashes      2037942                       # Number of outstanding Icache misses that were squashed
system.switch_cpus0.fetch.rateDist::samples    233100524                       # Number of instructions fetched each cycle (Total)
system.switch_cpus0.fetch.rateDist::mean     0.616873                       # Number of instructions fetched each cycle (Total)
system.switch_cpus0.fetch.rateDist::stdev     1.968773                       # Number of instructions fetched each cycle (Total)
system.switch_cpus0.fetch.rateDist::underflows            0      0.00%      0.00% # Number of instructions fetched each cycle (Total)
system.switch_cpus0.fetch.rateDist::0       208451884     89.43%     89.43% # Number of instructions fetched each cycle (Total)
system.switch_cpus0.fetch.rateDist::1         1331064      0.57%     90.00% # Number of instructions fetched each cycle (Total)
system.switch_cpus0.fetch.rateDist::2         2103747      0.90%     90.90% # Number of instructions fetched each cycle (Total)
system.switch_cpus0.fetch.rateDist::3         3365467      1.44%     92.34% # Number of instructions fetched each cycle (Total)
system.switch_cpus0.fetch.rateDist::4         1390375      0.60%     92.94% # Number of instructions fetched each cycle (Total)
system.switch_cpus0.fetch.rateDist::5         1550576      0.67%     93.60% # Number of instructions fetched each cycle (Total)
system.switch_cpus0.fetch.rateDist::6         1662666      0.71%     94.32% # Number of instructions fetched each cycle (Total)
system.switch_cpus0.fetch.rateDist::7         1089977      0.47%     94.79% # Number of instructions fetched each cycle (Total)
system.switch_cpus0.fetch.rateDist::8        12154768      5.21%    100.00% # Number of instructions fetched each cycle (Total)
system.switch_cpus0.fetch.rateDist::overflows            0      0.00%    100.00% # Number of instructions fetched each cycle (Total)
system.switch_cpus0.fetch.rateDist::min_value            0                       # Number of instructions fetched each cycle (Total)
system.switch_cpus0.fetch.rateDist::max_value            8                       # Number of instructions fetched each cycle (Total)
system.switch_cpus0.fetch.rateDist::total    233100524                       # Number of instructions fetched each cycle (Total)
system.switch_cpus0.fetch.branchRate         0.081462                       # Number of branch fetches per cycle
system.switch_cpus0.fetch.rate               0.462460                       # Number of inst fetches per cycle
system.switch_cpus0.decode.IdleCycles       199393405                       # Number of cycles decode is idle
system.switch_cpus0.decode.BlockedCycles      5257468                       # Number of cycles decode is blocked
system.switch_cpus0.decode.RunCycles         24571909                       # Number of cycles decode is running
system.switch_cpus0.decode.UnblockCycles        62441                       # Number of cycles decode is unblocking
system.switch_cpus0.decode.SquashCycles       3815298                       # Number of cycles decode is squashing
system.switch_cpus0.decode.BranchResolved      3400773                       # Number of times decode resolved a branch
system.switch_cpus0.decode.BranchMispred          473                       # Number of times decode detected a branch misprediction
system.switch_cpus0.decode.DecodedInsts     143704794                       # Number of instructions handled by decode
system.switch_cpus0.decode.SquashedInsts         3070                       # Number of squashed instructions handled by decode
system.switch_cpus0.rename.SquashCycles       3815298                       # Number of cycles rename is squashing
system.switch_cpus0.rename.IdleCycles       199693958                       # Number of cycles rename is idle
system.switch_cpus0.rename.BlockCycles        1677492                       # Number of cycles rename is blocking
system.switch_cpus0.rename.serializeStallCycles      2710609                       # count of cycles rename stalled for serializing inst
system.switch_cpus0.rename.RunCycles         24337848                       # Number of cycles rename is running
system.switch_cpus0.rename.UnblockCycles       865314                       # Number of cycles rename is unblocking
system.switch_cpus0.rename.RenamedInsts     143632619                       # Number of instructions processed by rename
system.switch_cpus0.rename.ROBFullEvents        17469                       # Number of times rename has blocked due to ROB full
system.switch_cpus0.rename.IQFullEvents        247480                       # Number of times rename has blocked due to IQ full
system.switch_cpus0.rename.LSQFullEvents       330010                       # Number of times rename has blocked due to LSQ full
system.switch_cpus0.rename.FullRegisterEvents        27249                       # Number of times there has been no free registers
system.switch_cpus0.rename.RenamedOperands    199418541                       # Number of destination operands rename has renamed
system.switch_cpus0.rename.RenameLookups    668177949                       # Number of register rename lookups that rename has made
system.switch_cpus0.rename.int_rename_lookups    668177949                       # Number of integer rename lookups
system.switch_cpus0.rename.CommittedMaps    170241819                       # Number of HB maps that are committed
system.switch_cpus0.rename.UndoneMaps        29176699                       # Number of HB maps that are undone due to squashing
system.switch_cpus0.rename.serializingInsts        36462                       # count of serializing insts renamed
system.switch_cpus0.rename.tempSerializingInsts        20000                       # count of temporary serializing insts renamed
system.switch_cpus0.rename.skidInsts          2639409                       # count of insts added to the skid buffer
system.switch_cpus0.memDep0.insertedLoads     13674025                       # Number of loads inserted to the mem dependence unit.
system.switch_cpus0.memDep0.insertedStores      7356373                       # Number of stores inserted to the mem dependence unit.
system.switch_cpus0.memDep0.conflictingLoads       221714                       # Number of conflicting loads.
system.switch_cpus0.memDep0.conflictingStores      1673372                       # Number of conflicting stores.
system.switch_cpus0.iq.iqInstsAdded         143457561                       # Number of instructions added to the IQ (excludes non-spec)
system.switch_cpus0.iq.iqNonSpecInstsAdded        36559                       # Number of non-speculative instructions added to the IQ
system.switch_cpus0.iq.iqInstsIssued        135750636                       # Number of instructions issued
system.switch_cpus0.iq.iqSquashedInstsIssued       166290                       # Number of squashed instructions issued
system.switch_cpus0.iq.iqSquashedInstsExamined     18223595                       # Number of squashed instructions iterated over during squash; mainly for profiling
system.switch_cpus0.iq.iqSquashedOperandsExamined     40627084                       # Number of squashed operands that are examined and possibly removed from graph
system.switch_cpus0.iq.iqSquashedNonSpecRemoved         3354                       # Number of squashed non-spec instructions that were removed
system.switch_cpus0.iq.issued_per_cycle::samples    233100524                       # Number of insts issued each cycle
system.switch_cpus0.iq.issued_per_cycle::mean     0.582370                       # Number of insts issued each cycle
system.switch_cpus0.iq.issued_per_cycle::stdev     1.274381                       # Number of insts issued each cycle
system.switch_cpus0.iq.issued_per_cycle::underflows            0      0.00%      0.00% # Number of insts issued each cycle
system.switch_cpus0.iq.issued_per_cycle::0    175883255     75.45%     75.45% # Number of insts issued each cycle
system.switch_cpus0.iq.issued_per_cycle::1     22956946      9.85%     85.30% # Number of insts issued each cycle
system.switch_cpus0.iq.issued_per_cycle::2     12550042      5.38%     90.69% # Number of insts issued each cycle
system.switch_cpus0.iq.issued_per_cycle::3      8562217      3.67%     94.36% # Number of insts issued each cycle
system.switch_cpus0.iq.issued_per_cycle::4      8014967      3.44%     97.80% # Number of insts issued each cycle
system.switch_cpus0.iq.issued_per_cycle::5      2301735      0.99%     98.79% # Number of insts issued each cycle
system.switch_cpus0.iq.issued_per_cycle::6      1801632      0.77%     99.56% # Number of insts issued each cycle
system.switch_cpus0.iq.issued_per_cycle::7       609220      0.26%     99.82% # Number of insts issued each cycle
system.switch_cpus0.iq.issued_per_cycle::8       420510      0.18%    100.00% # Number of insts issued each cycle
system.switch_cpus0.iq.issued_per_cycle::overflows            0      0.00%    100.00% # Number of insts issued each cycle
system.switch_cpus0.iq.issued_per_cycle::min_value            0                       # Number of insts issued each cycle
system.switch_cpus0.iq.issued_per_cycle::max_value            8                       # Number of insts issued each cycle
system.switch_cpus0.iq.issued_per_cycle::total    233100524                       # Number of insts issued each cycle
system.switch_cpus0.iq.fu_full::No_OpClass            0      0.00%      0.00% # attempts to use FU when none available
system.switch_cpus0.iq.fu_full::IntAlu          31618     12.51%     12.51% # attempts to use FU when none available
system.switch_cpus0.iq.fu_full::IntMult             0      0.00%     12.51% # attempts to use FU when none available
system.switch_cpus0.iq.fu_full::IntDiv              0      0.00%     12.51% # attempts to use FU when none available
system.switch_cpus0.iq.fu_full::FloatAdd            0      0.00%     12.51% # attempts to use FU when none available
system.switch_cpus0.iq.fu_full::FloatCmp            0      0.00%     12.51% # attempts to use FU when none available
system.switch_cpus0.iq.fu_full::FloatCvt            0      0.00%     12.51% # attempts to use FU when none available
system.switch_cpus0.iq.fu_full::FloatMult            0      0.00%     12.51% # attempts to use FU when none available
system.switch_cpus0.iq.fu_full::FloatDiv            0      0.00%     12.51% # attempts to use FU when none available
system.switch_cpus0.iq.fu_full::FloatSqrt            0      0.00%     12.51% # attempts to use FU when none available
system.switch_cpus0.iq.fu_full::SimdAdd             0      0.00%     12.51% # attempts to use FU when none available
system.switch_cpus0.iq.fu_full::SimdAddAcc            0      0.00%     12.51% # attempts to use FU when none available
system.switch_cpus0.iq.fu_full::SimdAlu             0      0.00%     12.51% # attempts to use FU when none available
system.switch_cpus0.iq.fu_full::SimdCmp             0      0.00%     12.51% # attempts to use FU when none available
system.switch_cpus0.iq.fu_full::SimdCvt             0      0.00%     12.51% # attempts to use FU when none available
system.switch_cpus0.iq.fu_full::SimdMisc            0      0.00%     12.51% # attempts to use FU when none available
system.switch_cpus0.iq.fu_full::SimdMult            0      0.00%     12.51% # attempts to use FU when none available
system.switch_cpus0.iq.fu_full::SimdMultAcc            0      0.00%     12.51% # attempts to use FU when none available
system.switch_cpus0.iq.fu_full::SimdShift            0      0.00%     12.51% # attempts to use FU when none available
system.switch_cpus0.iq.fu_full::SimdShiftAcc            0      0.00%     12.51% # attempts to use FU when none available
system.switch_cpus0.iq.fu_full::SimdSqrt            0      0.00%     12.51% # attempts to use FU when none available
system.switch_cpus0.iq.fu_full::SimdFloatAdd            0      0.00%     12.51% # attempts to use FU when none available
system.switch_cpus0.iq.fu_full::SimdFloatAlu            0      0.00%     12.51% # attempts to use FU when none available
system.switch_cpus0.iq.fu_full::SimdFloatCmp            0      0.00%     12.51% # attempts to use FU when none available
system.switch_cpus0.iq.fu_full::SimdFloatCvt            0      0.00%     12.51% # attempts to use FU when none available
system.switch_cpus0.iq.fu_full::SimdFloatDiv            0      0.00%     12.51% # attempts to use FU when none available
system.switch_cpus0.iq.fu_full::SimdFloatMisc            0      0.00%     12.51% # attempts to use FU when none available
system.switch_cpus0.iq.fu_full::SimdFloatMult            0      0.00%     12.51% # attempts to use FU when none available
system.switch_cpus0.iq.fu_full::SimdFloatMultAcc            0      0.00%     12.51% # attempts to use FU when none available
system.switch_cpus0.iq.fu_full::SimdFloatSqrt            0      0.00%     12.51% # attempts to use FU when none available
system.switch_cpus0.iq.fu_full::MemRead         97543     38.61%     51.12% # attempts to use FU when none available
system.switch_cpus0.iq.fu_full::MemWrite       123500     48.88%    100.00% # attempts to use FU when none available
system.switch_cpus0.iq.fu_full::IprAccess            0      0.00%    100.00% # attempts to use FU when none available
system.switch_cpus0.iq.fu_full::InstPrefetch            0      0.00%    100.00% # attempts to use FU when none available
system.switch_cpus0.iq.FU_type_0::No_OpClass            0      0.00%      0.00% # Type of FU issued
system.switch_cpus0.iq.FU_type_0::IntAlu    113721721     83.77%     83.77% # Type of FU issued
system.switch_cpus0.iq.FU_type_0::IntMult      2149003      1.58%     85.36% # Type of FU issued
system.switch_cpus0.iq.FU_type_0::IntDiv            0      0.00%     85.36% # Type of FU issued
system.switch_cpus0.iq.FU_type_0::FloatAdd            0      0.00%     85.36% # Type of FU issued
system.switch_cpus0.iq.FU_type_0::FloatCmp            0      0.00%     85.36% # Type of FU issued
system.switch_cpus0.iq.FU_type_0::FloatCvt            0      0.00%     85.36% # Type of FU issued
system.switch_cpus0.iq.FU_type_0::FloatMult            0      0.00%     85.36% # Type of FU issued
system.switch_cpus0.iq.FU_type_0::FloatDiv            0      0.00%     85.36% # Type of FU issued
system.switch_cpus0.iq.FU_type_0::FloatSqrt            0      0.00%     85.36% # Type of FU issued
system.switch_cpus0.iq.FU_type_0::SimdAdd            0      0.00%     85.36% # Type of FU issued
system.switch_cpus0.iq.FU_type_0::SimdAddAcc            0      0.00%     85.36% # Type of FU issued
system.switch_cpus0.iq.FU_type_0::SimdAlu            0      0.00%     85.36% # Type of FU issued
system.switch_cpus0.iq.FU_type_0::SimdCmp            0      0.00%     85.36% # Type of FU issued
system.switch_cpus0.iq.FU_type_0::SimdCvt            0      0.00%     85.36% # Type of FU issued
system.switch_cpus0.iq.FU_type_0::SimdMisc            0      0.00%     85.36% # Type of FU issued
system.switch_cpus0.iq.FU_type_0::SimdMult            0      0.00%     85.36% # Type of FU issued
system.switch_cpus0.iq.FU_type_0::SimdMultAcc            0      0.00%     85.36% # Type of FU issued
system.switch_cpus0.iq.FU_type_0::SimdShift            0      0.00%     85.36% # Type of FU issued
system.switch_cpus0.iq.FU_type_0::SimdShiftAcc            0      0.00%     85.36% # Type of FU issued
system.switch_cpus0.iq.FU_type_0::SimdSqrt            0      0.00%     85.36% # Type of FU issued
system.switch_cpus0.iq.FU_type_0::SimdFloatAdd            0      0.00%     85.36% # Type of FU issued
system.switch_cpus0.iq.FU_type_0::SimdFloatAlu            0      0.00%     85.36% # Type of FU issued
system.switch_cpus0.iq.FU_type_0::SimdFloatCmp            0      0.00%     85.36% # Type of FU issued
system.switch_cpus0.iq.FU_type_0::SimdFloatCvt            0      0.00%     85.36% # Type of FU issued
system.switch_cpus0.iq.FU_type_0::SimdFloatDiv            0      0.00%     85.36% # Type of FU issued
system.switch_cpus0.iq.FU_type_0::SimdFloatMisc        16461      0.01%     85.37% # Type of FU issued
system.switch_cpus0.iq.FU_type_0::SimdFloatMult            0      0.00%     85.37% # Type of FU issued
system.switch_cpus0.iq.FU_type_0::SimdFloatMultAcc            0      0.00%     85.37% # Type of FU issued
system.switch_cpus0.iq.FU_type_0::SimdFloatSqrt            0      0.00%     85.37% # Type of FU issued
system.switch_cpus0.iq.FU_type_0::MemRead     12541667      9.24%     94.61% # Type of FU issued
system.switch_cpus0.iq.FU_type_0::MemWrite      7321784      5.39%    100.00% # Type of FU issued
system.switch_cpus0.iq.FU_type_0::IprAccess            0      0.00%    100.00% # Type of FU issued
system.switch_cpus0.iq.FU_type_0::InstPrefetch            0      0.00%    100.00% # Type of FU issued
system.switch_cpus0.iq.FU_type_0::total     135750636                       # Type of FU issued
system.switch_cpus0.iq.rate                  0.533449                       # Inst issue rate
system.switch_cpus0.iq.fu_busy_cnt             252661                       # FU busy when requested
system.switch_cpus0.iq.fu_busy_rate          0.001861                       # FU busy rate (busy events/executed inst)
system.switch_cpus0.iq.int_inst_queue_reads    505020746                       # Number of integer instruction queue reads
system.switch_cpus0.iq.int_inst_queue_writes    161719217                       # Number of integer instruction queue writes
system.switch_cpus0.iq.int_inst_queue_wakeup_accesses    133572940                       # Number of integer instruction queue wakeup accesses
system.switch_cpus0.iq.fp_inst_queue_reads            0                       # Number of floating instruction queue reads
system.switch_cpus0.iq.fp_inst_queue_writes            0                       # Number of floating instruction queue writes
system.switch_cpus0.iq.fp_inst_queue_wakeup_accesses            0                       # Number of floating instruction queue wakeup accesses
system.switch_cpus0.iq.int_alu_accesses     136003297                       # Number of integer alu accesses
system.switch_cpus0.iq.fp_alu_accesses              0                       # Number of floating point alu accesses
system.switch_cpus0.iew.lsq.thread0.forwLoads       408322                       # Number of loads that had data forwarded from stores
system.switch_cpus0.iew.lsq.thread0.invAddrLoads            0                       # Number of loads ignored due to an invalid address
system.switch_cpus0.iew.lsq.thread0.squashedLoads      2437627                       # Number of loads squashed
system.switch_cpus0.iew.lsq.thread0.ignoredResponses          335                       # Number of memory responses ignored because the instruction is squashed
system.switch_cpus0.iew.lsq.thread0.memOrderViolation         1535                       # Number of memory ordering violations
system.switch_cpus0.iew.lsq.thread0.squashedStores       213356                       # Number of stores squashed
system.switch_cpus0.iew.lsq.thread0.invAddrSwpfs            0                       # Number of software prefetches ignored due to an invalid address
system.switch_cpus0.iew.lsq.thread0.blockedLoads            0                       # Number of blocked loads due to partial load-store forwarding
system.switch_cpus0.iew.lsq.thread0.rescheduledLoads         8480                       # Number of loads that were rescheduled
system.switch_cpus0.iew.lsq.thread0.cacheBlocked            0                       # Number of times an access to memory failed due to the cache being blocked
system.switch_cpus0.iew.iewIdleCycles               0                       # Number of cycles IEW is idle
system.switch_cpus0.iew.iewSquashCycles       3815298                       # Number of cycles IEW is squashing
system.switch_cpus0.iew.iewBlockCycles        1153577                       # Number of cycles IEW is blocking
system.switch_cpus0.iew.iewUnblockCycles       120913                       # Number of cycles IEW is unblocking
system.switch_cpus0.iew.iewDispatchedInsts    143494254                       # Number of instructions dispatched to IQ
system.switch_cpus0.iew.iewDispSquashedInsts         8044                       # Number of squashed instructions skipped by dispatch
system.switch_cpus0.iew.iewDispLoadInsts     13674025                       # Number of dispatched load instructions
system.switch_cpus0.iew.iewDispStoreInsts      7356373                       # Number of dispatched store instructions
system.switch_cpus0.iew.iewDispNonSpecInsts        19974                       # Number of dispatched non-speculative instructions
system.switch_cpus0.iew.iewIQFullEvents         88619                       # Number of times the IQ has become full, causing a stall
system.switch_cpus0.iew.iewLSQFullEvents           31                       # Number of times the LSQ has become full, causing a stall
system.switch_cpus0.iew.memOrderViolationEvents         1535                       # Number of memory order violations
system.switch_cpus0.iew.predictedTakenIncorrect      1181533                       # Number of branches that were predicted taken incorrectly
system.switch_cpus0.iew.predictedNotTakenIncorrect      1153539                       # Number of branches that were predicted not taken incorrectly
system.switch_cpus0.iew.branchMispredicts      2335072                       # Number of branch mispredicts detected at execute
system.switch_cpus0.iew.iewExecutedInsts    133820521                       # Number of executed instructions
system.switch_cpus0.iew.iewExecLoadInsts     11794686                       # Number of load instructions executed
system.switch_cpus0.iew.iewExecSquashedInsts      1930114                       # Number of squashed instructions skipped in execute
system.switch_cpus0.iew.exec_swp                    0                       # number of swp insts executed
system.switch_cpus0.iew.exec_nop                  134                       # number of nop insts executed
system.switch_cpus0.iew.exec_refs            19114723                       # number of memory reference insts executed
system.switch_cpus0.iew.exec_branches        18825172                       # Number of branches executed
system.switch_cpus0.iew.exec_stores           7320037                       # Number of stores executed
system.switch_cpus0.iew.exec_rate            0.525864                       # Inst execution rate
system.switch_cpus0.iew.wb_sent             133573978                       # cumulative count of insts sent to commit
system.switch_cpus0.iew.wb_count            133572940                       # cumulative count of insts written-back
system.switch_cpus0.iew.wb_producers         78089018                       # num instructions producing a value
system.switch_cpus0.iew.wb_consumers        204039180                       # num instructions consuming a value
system.switch_cpus0.iew.wb_penalized                0                       # number of instrctions required to write to 'other' IQ
system.switch_cpus0.iew.wb_rate              0.524891                       # insts written-back per cycle
system.switch_cpus0.iew.wb_fanout            0.382716                       # average fanout of values written-back
system.switch_cpus0.iew.wb_penalized_rate            0                       # fraction of instructions written-back that wrote to 'other' IQ
system.switch_cpus0.commit.commitCommittedInsts    100000003                       # The number of committed instructions
system.switch_cpus0.commit.commitCommittedOps    122574596                       # The number of committed instructions
system.switch_cpus0.commit.commitSquashedInsts     20919847                       # The number of squashed insts skipped by commit
system.switch_cpus0.commit.commitNonSpecStalls        33205                       # The number of times commit has been forced to stall to communicate backwards
system.switch_cpus0.commit.branchMispredicts      2064351                       # The number of times a branch was mispredicted
system.switch_cpus0.commit.committed_per_cycle::samples    229285226                       # Number of insts commited each cycle
system.switch_cpus0.commit.committed_per_cycle::mean     0.534594                       # Number of insts commited each cycle
system.switch_cpus0.commit.committed_per_cycle::stdev     1.388285                       # Number of insts commited each cycle
system.switch_cpus0.commit.committed_per_cycle::underflows            0      0.00%      0.00% # Number of insts commited each cycle
system.switch_cpus0.commit.committed_per_cycle::0    179522243     78.30%     78.30% # Number of insts commited each cycle
system.switch_cpus0.commit.committed_per_cycle::1     24103258     10.51%     88.81% # Number of insts commited each cycle
system.switch_cpus0.commit.committed_per_cycle::2      9381605      4.09%     92.90% # Number of insts commited each cycle
system.switch_cpus0.commit.committed_per_cycle::3      5052605      2.20%     95.10% # Number of insts commited each cycle
system.switch_cpus0.commit.committed_per_cycle::4      3784843      1.65%     96.75% # Number of insts commited each cycle
system.switch_cpus0.commit.committed_per_cycle::5      2113829      0.92%     97.68% # Number of insts commited each cycle
system.switch_cpus0.commit.committed_per_cycle::6      1303655      0.57%     98.25% # Number of insts commited each cycle
system.switch_cpus0.commit.committed_per_cycle::7      1165638      0.51%     98.75% # Number of insts commited each cycle
system.switch_cpus0.commit.committed_per_cycle::8      2857550      1.25%    100.00% # Number of insts commited each cycle
system.switch_cpus0.commit.committed_per_cycle::overflows            0      0.00%    100.00% # Number of insts commited each cycle
system.switch_cpus0.commit.committed_per_cycle::min_value            0                       # Number of insts commited each cycle
system.switch_cpus0.commit.committed_per_cycle::max_value            8                       # Number of insts commited each cycle
system.switch_cpus0.commit.committed_per_cycle::total    229285226                       # Number of insts commited each cycle
system.switch_cpus0.commit.committedInsts    100000003                       # Number of instructions committed
system.switch_cpus0.commit.committedOps     122574596                       # Number of ops (including micro ops) committed
system.switch_cpus0.commit.swp_count                0                       # Number of s/w prefetches committed
system.switch_cpus0.commit.refs              18379415                       # Number of memory references committed
system.switch_cpus0.commit.loads             11236398                       # Number of loads committed
system.switch_cpus0.commit.membars              16566                       # Number of memory barriers committed
system.switch_cpus0.commit.branches          17595165                       # Number of branches committed
system.switch_cpus0.commit.fp_insts                 0                       # Number of committed floating point instructions.
system.switch_cpus0.commit.int_insts        110448789                       # Number of committed integer instructions.
system.switch_cpus0.commit.function_calls      2490081                       # Number of function calls committed.
system.switch_cpus0.commit.bw_lim_events      2857550                       # number cycles where commit BW limit reached
system.switch_cpus0.commit.bw_limited               0                       # number of insts not committed due to BW limits
system.switch_cpus0.rob.rob_reads           369921443                       # The number of ROB reads
system.switch_cpus0.rob.rob_writes          290804410                       # The number of ROB writes
system.switch_cpus0.timesIdled                3240761                       # Number of times that the entire CPU went into an idle state and unscheduled itself
system.switch_cpus0.idleCycles               21376746                       # Total number of cycles that the CPU has spent unscheduled due to idling
system.switch_cpus0.committedInsts          100000003                       # Number of Instructions Simulated
system.switch_cpus0.committedOps            122574596                       # Number of Ops (including micro ops) Simulated
system.switch_cpus0.committedInsts_total    100000003                       # Number of Instructions Simulated
system.switch_cpus0.cpi                      2.544773                       # CPI: Cycles Per Instruction
system.switch_cpus0.cpi_total                2.544773                       # CPI: Total CPI of All Threads
system.switch_cpus0.ipc                      0.392962                       # IPC: Instructions Per Cycle
system.switch_cpus0.ipc_total                0.392962                       # IPC: Total IPC of All Threads
system.switch_cpus0.int_regfile_reads       603464977                       # number of integer regfile reads
system.switch_cpus0.int_regfile_writes      185148304                       # number of integer regfile writes
system.switch_cpus0.misc_regfile_reads      134039685                       # number of misc regfile reads
system.switch_cpus0.misc_regfile_writes         33174                       # number of misc regfile writes
system.switch_cpus1.dtb.inst_hits                   0                       # ITB inst hits
system.switch_cpus1.dtb.inst_misses                 0                       # ITB inst misses
system.switch_cpus1.dtb.read_hits                   0                       # DTB read hits
system.switch_cpus1.dtb.read_misses                 0                       # DTB read misses
system.switch_cpus1.dtb.write_hits                  0                       # DTB write hits
system.switch_cpus1.dtb.write_misses                0                       # DTB write misses
system.switch_cpus1.dtb.flush_tlb                   0                       # Number of times complete TLB was flushed
system.switch_cpus1.dtb.flush_tlb_mva               0                       # Number of times TLB was flushed by MVA
system.switch_cpus1.dtb.flush_tlb_mva_asid            0                       # Number of times TLB was flushed by MVA & ASID
system.switch_cpus1.dtb.flush_tlb_asid              0                       # Number of times TLB was flushed by ASID
system.switch_cpus1.dtb.flush_entries               0                       # Number of entries that have been flushed from TLB
system.switch_cpus1.dtb.align_faults                0                       # Number of TLB faults due to alignment restrictions
system.switch_cpus1.dtb.prefetch_faults             0                       # Number of TLB faults due to prefetch
system.switch_cpus1.dtb.domain_faults               0                       # Number of TLB faults due to domain restrictions
system.switch_cpus1.dtb.perms_faults                0                       # Number of TLB faults due to permissions restrictions
system.switch_cpus1.dtb.read_accesses               0                       # DTB read accesses
system.switch_cpus1.dtb.write_accesses              0                       # DTB write accesses
system.switch_cpus1.dtb.inst_accesses               0                       # ITB inst accesses
system.switch_cpus1.dtb.hits                        0                       # DTB hits
system.switch_cpus1.dtb.misses                      0                       # DTB misses
system.switch_cpus1.dtb.accesses                    0                       # DTB accesses
system.switch_cpus1.itb.inst_hits                   0                       # ITB inst hits
system.switch_cpus1.itb.inst_misses                 0                       # ITB inst misses
system.switch_cpus1.itb.read_hits                   0                       # DTB read hits
system.switch_cpus1.itb.read_misses                 0                       # DTB read misses
system.switch_cpus1.itb.write_hits                  0                       # DTB write hits
system.switch_cpus1.itb.write_misses                0                       # DTB write misses
system.switch_cpus1.itb.flush_tlb                   0                       # Number of times complete TLB was flushed
system.switch_cpus1.itb.flush_tlb_mva               0                       # Number of times TLB was flushed by MVA
system.switch_cpus1.itb.flush_tlb_mva_asid            0                       # Number of times TLB was flushed by MVA & ASID
system.switch_cpus1.itb.flush_tlb_asid              0                       # Number of times TLB was flushed by ASID
system.switch_cpus1.itb.flush_entries               0                       # Number of entries that have been flushed from TLB
system.switch_cpus1.itb.align_faults                0                       # Number of TLB faults due to alignment restrictions
system.switch_cpus1.itb.prefetch_faults             0                       # Number of TLB faults due to prefetch
system.switch_cpus1.itb.domain_faults               0                       # Number of TLB faults due to domain restrictions
system.switch_cpus1.itb.perms_faults                0                       # Number of TLB faults due to permissions restrictions
system.switch_cpus1.itb.read_accesses               0                       # DTB read accesses
system.switch_cpus1.itb.write_accesses              0                       # DTB write accesses
system.switch_cpus1.itb.inst_accesses               0                       # ITB inst accesses
system.switch_cpus1.itb.hits                        0                       # DTB hits
system.switch_cpus1.itb.misses                      0                       # DTB misses
system.switch_cpus1.itb.accesses                    0                       # DTB accesses
system.cpu1.workload.num_syscalls                  26                       # Number of system calls
system.switch_cpus1.numCycles               254477270                       # number of cpu cycles simulated
system.switch_cpus1.numWorkItemsStarted             0                       # number of work items this cpu started
system.switch_cpus1.numWorkItemsCompleted            0                       # number of work items this cpu completed
system.switch_cpus1.BPredUnit.lookups        19379006                       # Number of BP lookups
system.switch_cpus1.BPredUnit.condPredicted     17303978                       # Number of conditional branches predicted
system.switch_cpus1.BPredUnit.condIncorrect      1546233                       # Number of conditional branches incorrect
system.switch_cpus1.BPredUnit.BTBLookups     12989916                       # Number of BTB lookups
system.switch_cpus1.BPredUnit.BTBHits        12656400                       # Number of BTB hits
system.switch_cpus1.BPredUnit.BTBCorrect            0                       # Number of correct BTB predictions (this stat may not work properly.
system.switch_cpus1.BPredUnit.usedRAS         1163990                       # Number of times the RAS was used to get a target.
system.switch_cpus1.BPredUnit.RASInCorrect        46988                       # Number of incorrect RAS predictions.
system.switch_cpus1.fetch.icacheStallCycles    204885666                       # Number of cycles fetch is stalled on an Icache miss
system.switch_cpus1.fetch.Insts             110048569                       # Number of instructions fetch has processed
system.switch_cpus1.fetch.Branches           19379006                       # Number of branches that fetch encountered
system.switch_cpus1.fetch.predictedBranches     13820390                       # Number of branches that fetch has predicted taken
system.switch_cpus1.fetch.Cycles             24542109                       # Number of cycles fetch has run and was not squashing or blocked
system.switch_cpus1.fetch.SquashCycles        5061002                       # Number of cycles fetch has spent squashing
system.switch_cpus1.fetch.BlockedCycles       2911092                       # Number of cycles fetch has spent blocked
system.switch_cpus1.fetch.PendingTrapStallCycles           25                       # Number of stall cycles due to pending traps
system.switch_cpus1.fetch.CacheLines         12395560                       # Number of cache lines fetched
system.switch_cpus1.fetch.IcacheSquashes      1517769                       # Number of outstanding Icache misses that were squashed
system.switch_cpus1.fetch.rateDist::samples    235844986                       # Number of instructions fetched each cycle (Total)
system.switch_cpus1.fetch.rateDist::mean     0.522794                       # Number of instructions fetched each cycle (Total)
system.switch_cpus1.fetch.rateDist::stdev     1.764715                       # Number of instructions fetched each cycle (Total)
system.switch_cpus1.fetch.rateDist::underflows            0      0.00%      0.00% # Number of instructions fetched each cycle (Total)
system.switch_cpus1.fetch.rateDist::0       211302877     89.59%     89.59% # Number of instructions fetched each cycle (Total)
system.switch_cpus1.fetch.rateDist::1         3741365      1.59%     91.18% # Number of instructions fetched each cycle (Total)
system.switch_cpus1.fetch.rateDist::2         1889717      0.80%     91.98% # Number of instructions fetched each cycle (Total)
system.switch_cpus1.fetch.rateDist::3         3703957      1.57%     93.55% # Number of instructions fetched each cycle (Total)
system.switch_cpus1.fetch.rateDist::4         1187592      0.50%     94.06% # Number of instructions fetched each cycle (Total)
system.switch_cpus1.fetch.rateDist::5         3428981      1.45%     95.51% # Number of instructions fetched each cycle (Total)
system.switch_cpus1.fetch.rateDist::6          540744      0.23%     95.74% # Number of instructions fetched each cycle (Total)
system.switch_cpus1.fetch.rateDist::7          872038      0.37%     96.11% # Number of instructions fetched each cycle (Total)
system.switch_cpus1.fetch.rateDist::8         9177715      3.89%    100.00% # Number of instructions fetched each cycle (Total)
system.switch_cpus1.fetch.rateDist::overflows            0      0.00%    100.00% # Number of instructions fetched each cycle (Total)
system.switch_cpus1.fetch.rateDist::min_value            0                       # Number of instructions fetched each cycle (Total)
system.switch_cpus1.fetch.rateDist::max_value            8                       # Number of instructions fetched each cycle (Total)
system.switch_cpus1.fetch.rateDist::total    235844986                       # Number of instructions fetched each cycle (Total)
system.switch_cpus1.fetch.branchRate         0.076152                       # Number of branch fetches per cycle
system.switch_cpus1.fetch.rate               0.432450                       # Number of inst fetches per cycle
system.switch_cpus1.decode.IdleCycles       202471530                       # Number of cycles decode is idle
system.switch_cpus1.decode.BlockedCycles      5372371                       # Number of cycles decode is blocked
system.switch_cpus1.decode.RunCycles         24493337                       # Number of cycles decode is running
system.switch_cpus1.decode.UnblockCycles        19788                       # Number of cycles decode is unblocking
system.switch_cpus1.decode.SquashCycles       3487956                       # Number of cycles decode is squashing
system.switch_cpus1.decode.BranchResolved      1829711                       # Number of times decode resolved a branch
system.switch_cpus1.decode.BranchMispred        18139                       # Number of times decode detected a branch misprediction
system.switch_cpus1.decode.DecodedInsts     123102249                       # Number of instructions handled by decode
system.switch_cpus1.decode.SquashedInsts        34371                       # Number of squashed instructions handled by decode
system.switch_cpus1.rename.SquashCycles       3487956                       # Number of cycles rename is squashing
system.switch_cpus1.rename.IdleCycles       202742782                       # Number of cycles rename is idle
system.switch_cpus1.rename.BlockCycles        3204571                       # Number of cycles rename is blocking
system.switch_cpus1.rename.serializeStallCycles      1343220                       # count of cycles rename stalled for serializing inst
system.switch_cpus1.rename.RunCycles         24245368                       # Number of cycles rename is running
system.switch_cpus1.rename.UnblockCycles       821085                       # Number of cycles rename is unblocking
system.switch_cpus1.rename.RenamedInsts     122931838                       # Number of instructions processed by rename
system.switch_cpus1.rename.ROBFullEvents          136                       # Number of times rename has blocked due to ROB full
system.switch_cpus1.rename.IQFullEvents         94916                       # Number of times rename has blocked due to IQ full
system.switch_cpus1.rename.LSQFullEvents       653201                       # Number of times rename has blocked due to LSQ full
system.switch_cpus1.rename.RenamedOperands    161119832                       # Number of destination operands rename has renamed
system.switch_cpus1.rename.RenameLookups    557137297                       # Number of register rename lookups that rename has made
system.switch_cpus1.rename.int_rename_lookups    557137297                       # Number of integer rename lookups
system.switch_cpus1.rename.CommittedMaps    130745023                       # Number of HB maps that are committed
system.switch_cpus1.rename.UndoneMaps        30374789                       # Number of HB maps that are undone due to squashing
system.switch_cpus1.rename.serializingInsts        16493                       # count of serializing insts renamed
system.switch_cpus1.rename.tempSerializingInsts         8341                       # count of temporary serializing insts renamed
system.switch_cpus1.rename.skidInsts          1793310                       # count of insts added to the skid buffer
system.switch_cpus1.memDep0.insertedLoads     22177820                       # Number of loads inserted to the mem dependence unit.
system.switch_cpus1.memDep0.insertedStores      3599850                       # Number of stores inserted to the mem dependence unit.
system.switch_cpus1.memDep0.conflictingLoads        23775                       # Number of conflicting loads.
system.switch_cpus1.memDep0.conflictingStores       815842                       # Number of conflicting stores.
system.switch_cpus1.iq.iqInstsAdded         122299979                       # Number of instructions added to the IQ (excludes non-spec)
system.switch_cpus1.iq.iqNonSpecInstsAdded        16550                       # Number of non-speculative instructions added to the IQ
system.switch_cpus1.iq.iqInstsIssued        114549725                       # Number of instructions issued
system.switch_cpus1.iq.iqSquashedInstsIssued        74241                       # Number of squashed instructions issued
system.switch_cpus1.iq.iqSquashedInstsExamined     21991646                       # Number of squashed instructions iterated over during squash; mainly for profiling
system.switch_cpus1.iq.iqSquashedOperandsExamined     45079682                       # Number of squashed operands that are examined and possibly removed from graph
system.switch_cpus1.iq.iqSquashedNonSpecRemoved          108                       # Number of squashed non-spec instructions that were removed
system.switch_cpus1.iq.issued_per_cycle::samples    235844986                       # Number of insts issued each cycle
system.switch_cpus1.iq.issued_per_cycle::mean     0.485699                       # Number of insts issued each cycle
system.switch_cpus1.iq.issued_per_cycle::stdev     1.098130                       # Number of insts issued each cycle
system.switch_cpus1.iq.issued_per_cycle::underflows            0      0.00%      0.00% # Number of insts issued each cycle
system.switch_cpus1.iq.issued_per_cycle::0    185595835     78.69%     78.69% # Number of insts issued each cycle
system.switch_cpus1.iq.issued_per_cycle::1     15855791      6.72%     85.42% # Number of insts issued each cycle
system.switch_cpus1.iq.issued_per_cycle::2     16790473      7.12%     92.54% # Number of insts issued each cycle
system.switch_cpus1.iq.issued_per_cycle::3      9761890      4.14%     96.68% # Number of insts issued each cycle
system.switch_cpus1.iq.issued_per_cycle::4      5025721      2.13%     98.81% # Number of insts issued each cycle
system.switch_cpus1.iq.issued_per_cycle::5      1259827      0.53%     99.34% # Number of insts issued each cycle
system.switch_cpus1.iq.issued_per_cycle::6      1491725      0.63%     99.97% # Number of insts issued each cycle
system.switch_cpus1.iq.issued_per_cycle::7        34843      0.01%     99.99% # Number of insts issued each cycle
system.switch_cpus1.iq.issued_per_cycle::8        28881      0.01%    100.00% # Number of insts issued each cycle
system.switch_cpus1.iq.issued_per_cycle::overflows            0      0.00%    100.00% # Number of insts issued each cycle
system.switch_cpus1.iq.issued_per_cycle::min_value            0                       # Number of insts issued each cycle
system.switch_cpus1.iq.issued_per_cycle::max_value            8                       # Number of insts issued each cycle
system.switch_cpus1.iq.issued_per_cycle::total    235844986                       # Number of insts issued each cycle
system.switch_cpus1.iq.fu_full::No_OpClass            0      0.00%      0.00% # attempts to use FU when none available
system.switch_cpus1.iq.fu_full::IntAlu         192070     57.47%     57.47% # attempts to use FU when none available
system.switch_cpus1.iq.fu_full::IntMult             0      0.00%     57.47% # attempts to use FU when none available
system.switch_cpus1.iq.fu_full::IntDiv              0      0.00%     57.47% # attempts to use FU when none available
system.switch_cpus1.iq.fu_full::FloatAdd            0      0.00%     57.47% # attempts to use FU when none available
system.switch_cpus1.iq.fu_full::FloatCmp            0      0.00%     57.47% # attempts to use FU when none available
system.switch_cpus1.iq.fu_full::FloatCvt            0      0.00%     57.47% # attempts to use FU when none available
system.switch_cpus1.iq.fu_full::FloatMult            0      0.00%     57.47% # attempts to use FU when none available
system.switch_cpus1.iq.fu_full::FloatDiv            0      0.00%     57.47% # attempts to use FU when none available
system.switch_cpus1.iq.fu_full::FloatSqrt            0      0.00%     57.47% # attempts to use FU when none available
system.switch_cpus1.iq.fu_full::SimdAdd             0      0.00%     57.47% # attempts to use FU when none available
system.switch_cpus1.iq.fu_full::SimdAddAcc            0      0.00%     57.47% # attempts to use FU when none available
system.switch_cpus1.iq.fu_full::SimdAlu             0      0.00%     57.47% # attempts to use FU when none available
system.switch_cpus1.iq.fu_full::SimdCmp             0      0.00%     57.47% # attempts to use FU when none available
system.switch_cpus1.iq.fu_full::SimdCvt             0      0.00%     57.47% # attempts to use FU when none available
system.switch_cpus1.iq.fu_full::SimdMisc            0      0.00%     57.47% # attempts to use FU when none available
system.switch_cpus1.iq.fu_full::SimdMult            0      0.00%     57.47% # attempts to use FU when none available
system.switch_cpus1.iq.fu_full::SimdMultAcc            0      0.00%     57.47% # attempts to use FU when none available
system.switch_cpus1.iq.fu_full::SimdShift            0      0.00%     57.47% # attempts to use FU when none available
system.switch_cpus1.iq.fu_full::SimdShiftAcc            0      0.00%     57.47% # attempts to use FU when none available
system.switch_cpus1.iq.fu_full::SimdSqrt            0      0.00%     57.47% # attempts to use FU when none available
system.switch_cpus1.iq.fu_full::SimdFloatAdd            0      0.00%     57.47% # attempts to use FU when none available
system.switch_cpus1.iq.fu_full::SimdFloatAlu            0      0.00%     57.47% # attempts to use FU when none available
system.switch_cpus1.iq.fu_full::SimdFloatCmp            0      0.00%     57.47% # attempts to use FU when none available
system.switch_cpus1.iq.fu_full::SimdFloatCvt            0      0.00%     57.47% # attempts to use FU when none available
system.switch_cpus1.iq.fu_full::SimdFloatDiv            0      0.00%     57.47% # attempts to use FU when none available
system.switch_cpus1.iq.fu_full::SimdFloatMisc            0      0.00%     57.47% # attempts to use FU when none available
system.switch_cpus1.iq.fu_full::SimdFloatMult            0      0.00%     57.47% # attempts to use FU when none available
system.switch_cpus1.iq.fu_full::SimdFloatMultAcc            0      0.00%     57.47% # attempts to use FU when none available
system.switch_cpus1.iq.fu_full::SimdFloatSqrt            0      0.00%     57.47% # attempts to use FU when none available
system.switch_cpus1.iq.fu_full::MemRead         77457     23.18%     80.64% # attempts to use FU when none available
system.switch_cpus1.iq.fu_full::MemWrite        64693     19.36%    100.00% # attempts to use FU when none available
system.switch_cpus1.iq.fu_full::IprAccess            0      0.00%    100.00% # attempts to use FU when none available
system.switch_cpus1.iq.fu_full::InstPrefetch            0      0.00%    100.00% # attempts to use FU when none available
system.switch_cpus1.iq.FU_type_0::No_OpClass            0      0.00%      0.00% # Type of FU issued
system.switch_cpus1.iq.FU_type_0::IntAlu     89825162     78.42%     78.42% # Type of FU issued
system.switch_cpus1.iq.FU_type_0::IntMult       897848      0.78%     79.20% # Type of FU issued
system.switch_cpus1.iq.FU_type_0::IntDiv            0      0.00%     79.20% # Type of FU issued
system.switch_cpus1.iq.FU_type_0::FloatAdd            0      0.00%     79.20% # Type of FU issued
system.switch_cpus1.iq.FU_type_0::FloatCmp            0      0.00%     79.20% # Type of FU issued
system.switch_cpus1.iq.FU_type_0::FloatCvt            0      0.00%     79.20% # Type of FU issued
system.switch_cpus1.iq.FU_type_0::FloatMult            0      0.00%     79.20% # Type of FU issued
system.switch_cpus1.iq.FU_type_0::FloatDiv            0      0.00%     79.20% # Type of FU issued
system.switch_cpus1.iq.FU_type_0::FloatSqrt            0      0.00%     79.20% # Type of FU issued
system.switch_cpus1.iq.FU_type_0::SimdAdd            0      0.00%     79.20% # Type of FU issued
system.switch_cpus1.iq.FU_type_0::SimdAddAcc            0      0.00%     79.20% # Type of FU issued
system.switch_cpus1.iq.FU_type_0::SimdAlu            0      0.00%     79.20% # Type of FU issued
[...]
system.cpu7.icache.ReadReq_avg_miss_latency::total 165553.468085                       # average ReadReq miss latency
system.cpu7.icache.demand_avg_miss_latency::switch_cpus7.inst 165553.468085                       # average overall miss latency
system.cpu7.icache.demand_avg_miss_latency::total 165553.468085                       # average overall miss latency
system.cpu7.icache.overall_avg_miss_latency::switch_cpus7.inst 165553.468085                       # average overall miss latency
system.cpu7.icache.overall_avg_miss_latency::total 165553.468085                       # average overall miss latency
system.cpu7.icache.blocked_cycles::no_mshrs            0                       # number of cycles access was blocked
system.cpu7.icache.blocked_cycles::no_targets            0                       # number of cycles access was blocked
system.cpu7.icache.blocked::no_mshrs                0                       # number of cycles access was blocked
system.cpu7.icache.blocked::no_targets              0                       # number of cycles access was blocked
system.cpu7.icache.avg_blocked_cycles::no_mshrs          nan                       # average number of cycles each access was blocked
system.cpu7.icache.avg_blocked_cycles::no_targets          nan                       # average number of cycles each access was blocked
system.cpu7.icache.fast_writes                      0                       # number of fast writes performed
system.cpu7.icache.cache_copies                     0                       # number of cache copies performed
system.cpu7.icache.ReadReq_mshr_hits::switch_cpus7.inst           11                       # number of ReadReq MSHR hits
system.cpu7.icache.ReadReq_mshr_hits::total           11                       # number of ReadReq MSHR hits
system.cpu7.icache.demand_mshr_hits::switch_cpus7.inst           11                       # number of demand (read+write) MSHR hits
system.cpu7.icache.demand_mshr_hits::total           11                       # number of demand (read+write) MSHR hits
system.cpu7.icache.overall_mshr_hits::switch_cpus7.inst           11                       # number of overall MSHR hits
system.cpu7.icache.overall_mshr_hits::total           11                       # number of overall MSHR hits
system.cpu7.icache.ReadReq_mshr_misses::switch_cpus7.inst           36                       # number of ReadReq MSHR misses
system.cpu7.icache.ReadReq_mshr_misses::total           36                       # number of ReadReq MSHR misses
system.cpu7.icache.demand_mshr_misses::switch_cpus7.inst           36                       # number of demand (read+write) MSHR misses
system.cpu7.icache.demand_mshr_misses::total           36                       # number of demand (read+write) MSHR misses
system.cpu7.icache.overall_mshr_misses::switch_cpus7.inst           36                       # number of overall MSHR misses
system.cpu7.icache.overall_mshr_misses::total           36                       # number of overall MSHR misses
system.cpu7.icache.ReadReq_mshr_miss_latency::switch_cpus7.inst      6175283                       # number of ReadReq MSHR miss cycles
system.cpu7.icache.ReadReq_mshr_miss_latency::total      6175283                       # number of ReadReq MSHR miss cycles
system.cpu7.icache.demand_mshr_miss_latency::switch_cpus7.inst      6175283                       # number of demand (read+write) MSHR miss cycles
system.cpu7.icache.demand_mshr_miss_latency::total      6175283                       # number of demand (read+write) MSHR miss cycles
system.cpu7.icache.overall_mshr_miss_latency::switch_cpus7.inst      6175283                       # number of overall MSHR miss cycles
system.cpu7.icache.overall_mshr_miss_latency::total      6175283                       # number of overall MSHR miss cycles
system.cpu7.icache.ReadReq_mshr_miss_rate::switch_cpus7.inst     0.000003                       # mshr miss rate for ReadReq accesses
system.cpu7.icache.ReadReq_mshr_miss_rate::total     0.000003                       # mshr miss rate for ReadReq accesses
system.cpu7.icache.demand_mshr_miss_rate::switch_cpus7.inst     0.000003                       # mshr miss rate for demand accesses
system.cpu7.icache.demand_mshr_miss_rate::total     0.000003                       # mshr miss rate for demand accesses
system.cpu7.icache.overall_mshr_miss_rate::switch_cpus7.inst     0.000003                       # mshr miss rate for overall accesses
system.cpu7.icache.overall_mshr_miss_rate::total     0.000003                       # mshr miss rate for overall accesses
system.cpu7.icache.ReadReq_avg_mshr_miss_latency::switch_cpus7.inst 171535.638889                       # average ReadReq mshr miss latency
system.cpu7.icache.ReadReq_avg_mshr_miss_latency::total 171535.638889                       # average ReadReq mshr miss latency
system.cpu7.icache.demand_avg_mshr_miss_latency::switch_cpus7.inst 171535.638889                       # average overall mshr miss latency
system.cpu7.icache.demand_avg_mshr_miss_latency::total 171535.638889                       # average overall mshr miss latency
system.cpu7.icache.overall_avg_mshr_miss_latency::switch_cpus7.inst 171535.638889                       # average overall mshr miss latency
system.cpu7.icache.overall_avg_mshr_miss_latency::total 171535.638889                       # average overall mshr miss latency
system.cpu7.icache.no_allocate_misses               0                       # Number of misses that were no-allocate
system.cpu7.dcache.replacements                 55693                       # number of replacements
system.cpu7.dcache.tagsinuse                      256                       # Cycle average of tags in use
system.cpu7.dcache.total_refs               223851446                       # Total number of references to valid blocks.
system.cpu7.dcache.sampled_refs                 55949                       # Sample count of references to valid blocks.
system.cpu7.dcache.avg_refs               4000.991010                       # Average number of references to valid blocks.
system.cpu7.dcache.warmup_cycle                     0                       # Cycle when the warmup percentage was hit.
system.cpu7.dcache.occ_blocks::switch_cpus7.data   201.609741                       # Average occupied blocks per requestor
system.cpu7.dcache.occ_blocks::cpu7.data    54.390259                       # Average occupied blocks per requestor
system.cpu7.dcache.occ_percent::switch_cpus7.data     0.787538                       # Average percentage of cache occupancy
system.cpu7.dcache.occ_percent::cpu7.data     0.212462                       # Average percentage of cache occupancy
system.cpu7.dcache.occ_percent::total               1                       # Average percentage of cache occupancy
system.cpu7.dcache.ReadReq_hits::switch_cpus7.data     18231867                       # number of ReadReq hits
system.cpu7.dcache.ReadReq_hits::total       18231867                       # number of ReadReq hits
system.cpu7.dcache.WriteReq_hits::switch_cpus7.data      3500701                       # number of WriteReq hits
system.cpu7.dcache.WriteReq_hits::total       3500701                       # number of WriteReq hits
system.cpu7.dcache.LoadLockedReq_hits::switch_cpus7.data         8274                       # number of LoadLockedReq hits
system.cpu7.dcache.LoadLockedReq_hits::total         8274                       # number of LoadLockedReq hits
system.cpu7.dcache.StoreCondReq_hits::switch_cpus7.data         8217                       # number of StoreCondReq hits
system.cpu7.dcache.StoreCondReq_hits::total         8217                       # number of StoreCondReq hits
system.cpu7.dcache.demand_hits::switch_cpus7.data     21732568                       # number of demand (read+write) hits
system.cpu7.dcache.demand_hits::total        21732568                       # number of demand (read+write) hits
system.cpu7.dcache.overall_hits::switch_cpus7.data     21732568                       # number of overall hits
system.cpu7.dcache.overall_hits::total       21732568                       # number of overall hits
system.cpu7.dcache.ReadReq_misses::switch_cpus7.data       188966                       # number of ReadReq misses
system.cpu7.dcache.ReadReq_misses::total       188966                       # number of ReadReq misses
system.cpu7.dcache.WriteReq_misses::switch_cpus7.data          374                       # number of WriteReq misses
system.cpu7.dcache.WriteReq_misses::total          374                       # number of WriteReq misses
system.cpu7.dcache.demand_misses::switch_cpus7.data       189340                       # number of demand (read+write) misses
system.cpu7.dcache.demand_misses::total        189340                       # number of demand (read+write) misses
system.cpu7.dcache.overall_misses::switch_cpus7.data       189340                       # number of overall misses
system.cpu7.dcache.overall_misses::total       189340                       # number of overall misses
system.cpu7.dcache.ReadReq_miss_latency::switch_cpus7.data  20110597905                       # number of ReadReq miss cycles
system.cpu7.dcache.ReadReq_miss_latency::total  20110597905                       # number of ReadReq miss cycles
system.cpu7.dcache.WriteReq_miss_latency::switch_cpus7.data     32808371                       # number of WriteReq miss cycles
system.cpu7.dcache.WriteReq_miss_latency::total     32808371                       # number of WriteReq miss cycles
system.cpu7.dcache.demand_miss_latency::switch_cpus7.data  20143406276                       # number of demand (read+write) miss cycles
system.cpu7.dcache.demand_miss_latency::total  20143406276                       # number of demand (read+write) miss cycles
system.cpu7.dcache.overall_miss_latency::switch_cpus7.data  20143406276                       # number of overall miss cycles
system.cpu7.dcache.overall_miss_latency::total  20143406276                       # number of overall miss cycles
system.cpu7.dcache.ReadReq_accesses::switch_cpus7.data     18420833                       # number of ReadReq accesses(hits+misses)
system.cpu7.dcache.ReadReq_accesses::total     18420833                       # number of ReadReq accesses(hits+misses)
system.cpu7.dcache.WriteReq_accesses::switch_cpus7.data      3501075                       # number of WriteReq accesses(hits+misses)
system.cpu7.dcache.WriteReq_accesses::total      3501075                       # number of WriteReq accesses(hits+misses)
system.cpu7.dcache.LoadLockedReq_accesses::switch_cpus7.data         8274                       # number of LoadLockedReq accesses(hits+misses)
system.cpu7.dcache.LoadLockedReq_accesses::total         8274                       # number of LoadLockedReq accesses(hits+misses)
system.cpu7.dcache.StoreCondReq_accesses::switch_cpus7.data         8217                       # number of StoreCondReq accesses(hits+misses)
system.cpu7.dcache.StoreCondReq_accesses::total         8217                       # number of StoreCondReq accesses(hits+misses)
system.cpu7.dcache.demand_accesses::switch_cpus7.data     21921908                       # number of demand (read+write) accesses
system.cpu7.dcache.demand_accesses::total     21921908                       # number of demand (read+write) accesses
system.cpu7.dcache.overall_accesses::switch_cpus7.data     21921908                       # number of overall (read+write) accesses
system.cpu7.dcache.overall_accesses::total     21921908                       # number of overall (read+write) accesses
system.cpu7.dcache.ReadReq_miss_rate::switch_cpus7.data     0.010258                       # miss rate for ReadReq accesses
system.cpu7.dcache.ReadReq_miss_rate::total     0.010258                       # miss rate for ReadReq accesses
system.cpu7.dcache.WriteReq_miss_rate::switch_cpus7.data     0.000107                       # miss rate for WriteReq accesses
system.cpu7.dcache.WriteReq_miss_rate::total     0.000107                       # miss rate for WriteReq accesses
system.cpu7.dcache.demand_miss_rate::switch_cpus7.data     0.008637                       # miss rate for demand accesses
system.cpu7.dcache.demand_miss_rate::total     0.008637                       # miss rate for demand accesses
system.cpu7.dcache.overall_miss_rate::switch_cpus7.data     0.008637                       # miss rate for overall accesses
system.cpu7.dcache.overall_miss_rate::total     0.008637                       # miss rate for overall accesses
system.cpu7.dcache.ReadReq_avg_miss_latency::switch_cpus7.data 106424.425055                       # average ReadReq miss latency
system.cpu7.dcache.ReadReq_avg_miss_latency::total 106424.425055                       # average ReadReq miss latency
system.cpu7.dcache.WriteReq_avg_miss_latency::switch_cpus7.data 87722.917112                       # average WriteReq miss latency
system.cpu7.dcache.WriteReq_avg_miss_latency::total 87722.917112                       # average WriteReq miss latency
system.cpu7.dcache.demand_avg_miss_latency::switch_cpus7.data 106387.484293                       # average overall miss latency
system.cpu7.dcache.demand_avg_miss_latency::total 106387.484293                       # average overall miss latency
system.cpu7.dcache.overall_avg_miss_latency::switch_cpus7.data 106387.484293                       # average overall miss latency
system.cpu7.dcache.overall_avg_miss_latency::total 106387.484293                       # average overall miss latency
system.cpu7.dcache.blocked_cycles::no_mshrs            0                       # number of cycles access was blocked
system.cpu7.dcache.blocked_cycles::no_targets            0                       # number of cycles access was blocked
system.cpu7.dcache.blocked::no_mshrs                0                       # number of cycles access was blocked
system.cpu7.dcache.blocked::no_targets              0                       # number of cycles access was blocked
system.cpu7.dcache.avg_blocked_cycles::no_mshrs          nan                       # average number of cycles each access was blocked
system.cpu7.dcache.avg_blocked_cycles::no_targets          nan                       # average number of cycles each access was blocked
system.cpu7.dcache.fast_writes                      0                       # number of fast writes performed
system.cpu7.dcache.cache_copies                     0                       # number of cache copies performed
system.cpu7.dcache.writebacks::writebacks         7255                       # number of writebacks
system.cpu7.dcache.writebacks::total             7255                       # number of writebacks
system.cpu7.dcache.ReadReq_mshr_hits::switch_cpus7.data       133349                       # number of ReadReq MSHR hits
system.cpu7.dcache.ReadReq_mshr_hits::total       133349                       # number of ReadReq MSHR hits
system.cpu7.dcache.WriteReq_mshr_hits::switch_cpus7.data          298                       # number of WriteReq MSHR hits
system.cpu7.dcache.WriteReq_mshr_hits::total          298                       # number of WriteReq MSHR hits
system.cpu7.dcache.demand_mshr_hits::switch_cpus7.data       133647                       # number of demand (read+write) MSHR hits
system.cpu7.dcache.demand_mshr_hits::total       133647                       # number of demand (read+write) MSHR hits
system.cpu7.dcache.overall_mshr_hits::switch_cpus7.data       133647                       # number of overall MSHR hits
system.cpu7.dcache.overall_mshr_hits::total       133647                       # number of overall MSHR hits
system.cpu7.dcache.ReadReq_mshr_misses::switch_cpus7.data        55617                       # number of ReadReq MSHR misses
system.cpu7.dcache.ReadReq_mshr_misses::total        55617                       # number of ReadReq MSHR misses
system.cpu7.dcache.WriteReq_mshr_misses::switch_cpus7.data           76                       # number of WriteReq MSHR misses
system.cpu7.dcache.WriteReq_mshr_misses::total           76                       # number of WriteReq MSHR misses
system.cpu7.dcache.demand_mshr_misses::switch_cpus7.data        55693                       # number of demand (read+write) MSHR misses
system.cpu7.dcache.demand_mshr_misses::total        55693                       # number of demand (read+write) MSHR misses
system.cpu7.dcache.overall_mshr_misses::switch_cpus7.data        55693                       # number of overall MSHR misses
system.cpu7.dcache.overall_mshr_misses::total        55693                       # number of overall MSHR misses
system.cpu7.dcache.ReadReq_mshr_miss_latency::switch_cpus7.data   5286608514                       # number of ReadReq MSHR miss cycles
system.cpu7.dcache.ReadReq_mshr_miss_latency::total   5286608514                       # number of ReadReq MSHR miss cycles
system.cpu7.dcache.WriteReq_mshr_miss_latency::switch_cpus7.data      5089286                       # number of WriteReq MSHR miss cycles
system.cpu7.dcache.WriteReq_mshr_miss_latency::total      5089286                       # number of WriteReq MSHR miss cycles
system.cpu7.dcache.demand_mshr_miss_latency::switch_cpus7.data   5291697800                       # number of demand (read+write) MSHR miss cycles
system.cpu7.dcache.demand_mshr_miss_latency::total   5291697800                       # number of demand (read+write) MSHR miss cycles
system.cpu7.dcache.overall_mshr_miss_latency::switch_cpus7.data   5291697800                       # number of overall MSHR miss cycles
system.cpu7.dcache.overall_mshr_miss_latency::total   5291697800                       # number of overall MSHR miss cycles
system.cpu7.dcache.ReadReq_mshr_miss_rate::switch_cpus7.data     0.003019                       # mshr miss rate for ReadReq accesses
system.cpu7.dcache.ReadReq_mshr_miss_rate::total     0.003019                       # mshr miss rate for ReadReq accesses
system.cpu7.dcache.WriteReq_mshr_miss_rate::switch_cpus7.data     0.000022                       # mshr miss rate for WriteReq accesses
system.cpu7.dcache.WriteReq_mshr_miss_rate::total     0.000022                       # mshr miss rate for WriteReq accesses
system.cpu7.dcache.demand_mshr_miss_rate::switch_cpus7.data     0.002541                       # mshr miss rate for demand accesses
system.cpu7.dcache.demand_mshr_miss_rate::total     0.002541                       # mshr miss rate for demand accesses
system.cpu7.dcache.overall_mshr_miss_rate::switch_cpus7.data     0.002541                       # mshr miss rate for overall accesses
system.cpu7.dcache.overall_mshr_miss_rate::total     0.002541                       # mshr miss rate for overall accesses
system.cpu7.dcache.ReadReq_avg_mshr_miss_latency::switch_cpus7.data 95053.823723                       # average ReadReq mshr miss latency
system.cpu7.dcache.ReadReq_avg_mshr_miss_latency::total 95053.823723                       # average ReadReq mshr miss latency
system.cpu7.dcache.WriteReq_avg_mshr_miss_latency::switch_cpus7.data 66964.289474                       # average WriteReq mshr miss latency
system.cpu7.dcache.WriteReq_avg_mshr_miss_latency::total 66964.289474                       # average WriteReq mshr miss latency
system.cpu7.dcache.demand_avg_mshr_miss_latency::switch_cpus7.data 95015.492073                       # average overall mshr miss latency
system.cpu7.dcache.demand_avg_mshr_miss_latency::total 95015.492073                       # average overall mshr miss latency
system.cpu7.dcache.overall_avg_mshr_miss_latency::switch_cpus7.data 95015.492073                       # average overall mshr miss latency
system.cpu7.dcache.overall_avg_mshr_miss_latency::total 95015.492073                       # average overall mshr miss latency
system.cpu7.dcache.no_allocate_misses               0                       # Number of misses that were no-allocate

---------- End Simulation Statistics   ----------
