
---------- Begin Simulation Statistics ----------
sim_seconds                                  0.013177                       # Number of seconds simulated
sim_ticks                                 13176833874                       # Number of ticks simulated
final_tick                               578475265701                       # Number of ticks from beginning of simulation (restored from checkpoints and never reset)
sim_freq                                 1000000000000                       # Frequency of simulated ticks
host_inst_rate                                 380975                       # Simulator instruction rate (inst/s)
host_op_rate                                   488951                       # Simulator op (including micro ops) rate (op/s)
host_tick_rate                                 294242                       # Simulator tick rate (ticks/s)
host_mem_usage                               67766472                       # Number of bytes of host memory used
host_seconds                                 44782.33                       # Real time elapsed on the host
sim_insts                                 17060954086                       # Number of instructions simulated
sim_ops                                   21896360021                       # Number of ops (including micro ops) simulated
system.physmem.bytes_read::switch_cpus00.inst         3840                       # Number of bytes read from this memory
system.physmem.bytes_read::switch_cpus00.data       254848                       # Number of bytes read from this memory
system.physmem.bytes_read::switch_cpus01.inst         4736                       # Number of bytes read from this memory
system.physmem.bytes_read::switch_cpus01.data       261760                       # Number of bytes read from this memory
system.physmem.bytes_read::switch_cpus02.inst         4224                       # Number of bytes read from this memory
system.physmem.bytes_read::switch_cpus02.data       517632                       # Number of bytes read from this memory
system.physmem.bytes_read::switch_cpus03.inst         4992                       # Number of bytes read from this memory
system.physmem.bytes_read::switch_cpus03.data       260480                       # Number of bytes read from this memory
system.physmem.bytes_read::switch_cpus04.inst         4224                       # Number of bytes read from this memory
system.physmem.bytes_read::switch_cpus04.data       517248                       # Number of bytes read from this memory
system.physmem.bytes_read::switch_cpus05.inst         4352                       # Number of bytes read from this memory
system.physmem.bytes_read::switch_cpus05.data       255232                       # Number of bytes read from this memory
system.physmem.bytes_read::switch_cpus06.inst         3968                       # Number of bytes read from this memory
system.physmem.bytes_read::switch_cpus06.data       254720                       # Number of bytes read from this memory
system.physmem.bytes_read::switch_cpus07.inst         4480                       # Number of bytes read from this memory
system.physmem.bytes_read::switch_cpus07.data       446848                       # Number of bytes read from this memory
system.physmem.bytes_read::switch_cpus08.inst         4992                       # Number of bytes read from this memory
system.physmem.bytes_read::switch_cpus08.data       176128                       # Number of bytes read from this memory
system.physmem.bytes_read::switch_cpus09.inst         4352                       # Number of bytes read from this memory
system.physmem.bytes_read::switch_cpus09.data       444288                       # Number of bytes read from this memory
system.physmem.bytes_read::switch_cpus10.inst         4224                       # Number of bytes read from this memory
system.physmem.bytes_read::switch_cpus10.data       254848                       # Number of bytes read from this memory
system.physmem.bytes_read::switch_cpus11.inst         4352                       # Number of bytes read from this memory
system.physmem.bytes_read::switch_cpus11.data       257152                       # Number of bytes read from this memory
system.physmem.bytes_read::switch_cpus12.inst         3712                       # Number of bytes read from this memory
system.physmem.bytes_read::switch_cpus12.data       255232                       # Number of bytes read from this memory
system.physmem.bytes_read::switch_cpus13.inst         4096                       # Number of bytes read from this memory
system.physmem.bytes_read::switch_cpus13.data       517376                       # Number of bytes read from this memory
system.physmem.bytes_read::switch_cpus14.inst         4224                       # Number of bytes read from this memory
system.physmem.bytes_read::switch_cpus14.data       255360                       # Number of bytes read from this memory
system.physmem.bytes_read::switch_cpus15.inst         4096                       # Number of bytes read from this memory
system.physmem.bytes_read::switch_cpus15.data       518784                       # Number of bytes read from this memory
system.physmem.bytes_read::total              5516800                       # Number of bytes read from this memory
system.physmem.bytes_inst_read::switch_cpus00.inst         3840                       # Number of instructions bytes read from this memory
system.physmem.bytes_inst_read::switch_cpus01.inst         4736                       # Number of instructions bytes read from this memory
system.physmem.bytes_inst_read::switch_cpus02.inst         4224                       # Number of instructions bytes read from this memory
system.physmem.bytes_inst_read::switch_cpus03.inst         4992                       # Number of instructions bytes read from this memory
system.physmem.bytes_inst_read::switch_cpus04.inst         4224                       # Number of instructions bytes read from this memory
system.physmem.bytes_inst_read::switch_cpus05.inst         4352                       # Number of instructions bytes read from this memory
system.physmem.bytes_inst_read::switch_cpus06.inst         3968                       # Number of instructions bytes read from this memory
system.physmem.bytes_inst_read::switch_cpus07.inst         4480                       # Number of instructions bytes read from this memory
system.physmem.bytes_inst_read::switch_cpus08.inst         4992                       # Number of instructions bytes read from this memory
system.physmem.bytes_inst_read::switch_cpus09.inst         4352                       # Number of instructions bytes read from this memory
system.physmem.bytes_inst_read::switch_cpus10.inst         4224                       # Number of instructions bytes read from this memory
system.physmem.bytes_inst_read::switch_cpus11.inst         4352                       # Number of instructions bytes read from this memory
system.physmem.bytes_inst_read::switch_cpus12.inst         3712                       # Number of instructions bytes read from this memory
system.physmem.bytes_inst_read::switch_cpus13.inst         4096                       # Number of instructions bytes read from this memory
system.physmem.bytes_inst_read::switch_cpus14.inst         4224                       # Number of instructions bytes read from this memory
system.physmem.bytes_inst_read::switch_cpus15.inst         4096                       # Number of instructions bytes read from this memory
system.physmem.bytes_inst_read::total           68864                       # Number of instructions bytes read from this memory
system.physmem.bytes_written::writebacks      1239168                       # Number of bytes written to this memory
system.physmem.bytes_written::total           1239168                       # Number of bytes written to this memory
system.physmem.num_reads::switch_cpus00.inst           30                       # Number of read requests responded to by this memory
system.physmem.num_reads::switch_cpus00.data         1991                       # Number of read requests responded to by this memory
system.physmem.num_reads::switch_cpus01.inst           37                       # Number of read requests responded to by this memory
system.physmem.num_reads::switch_cpus01.data         2045                       # Number of read requests responded to by this memory
system.physmem.num_reads::switch_cpus02.inst           33                       # Number of read requests responded to by this memory
system.physmem.num_reads::switch_cpus02.data         4044                       # Number of read requests responded to by this memory
system.physmem.num_reads::switch_cpus03.inst           39                       # Number of read requests responded to by this memory
system.physmem.num_reads::switch_cpus03.data         2035                       # Number of read requests responded to by this memory
system.physmem.num_reads::switch_cpus04.inst           33                       # Number of read requests responded to by this memory
system.physmem.num_reads::switch_cpus04.data         4041                       # Number of read requests responded to by this memory
system.physmem.num_reads::switch_cpus05.inst           34                       # Number of read requests responded to by this memory
system.physmem.num_reads::switch_cpus05.data         1994                       # Number of read requests responded to by this memory
system.physmem.num_reads::switch_cpus06.inst           31                       # Number of read requests responded to by this memory
system.physmem.num_reads::switch_cpus06.data         1990                       # Number of read requests responded to by this memory
system.physmem.num_reads::switch_cpus07.inst           35                       # Number of read requests responded to by this memory
system.physmem.num_reads::switch_cpus07.data         3491                       # Number of read requests responded to by this memory
system.physmem.num_reads::switch_cpus08.inst           39                       # Number of read requests responded to by this memory
system.physmem.num_reads::switch_cpus08.data         1376                       # Number of read requests responded to by this memory
system.physmem.num_reads::switch_cpus09.inst           34                       # Number of read requests responded to by this memory
system.physmem.num_reads::switch_cpus09.data         3471                       # Number of read requests responded to by this memory
system.physmem.num_reads::switch_cpus10.inst           33                       # Number of read requests responded to by this memory
system.physmem.num_reads::switch_cpus10.data         1991                       # Number of read requests responded to by this memory
system.physmem.num_reads::switch_cpus11.inst           34                       # Number of read requests responded to by this memory
system.physmem.num_reads::switch_cpus11.data         2009                       # Number of read requests responded to by this memory
system.physmem.num_reads::switch_cpus12.inst           29                       # Number of read requests responded to by this memory
system.physmem.num_reads::switch_cpus12.data         1994                       # Number of read requests responded to by this memory
system.physmem.num_reads::switch_cpus13.inst           32                       # Number of read requests responded to by this memory
system.physmem.num_reads::switch_cpus13.data         4042                       # Number of read requests responded to by this memory
system.physmem.num_reads::switch_cpus14.inst           33                       # Number of read requests responded to by this memory
system.physmem.num_reads::switch_cpus14.data         1995                       # Number of read requests responded to by this memory
system.physmem.num_reads::switch_cpus15.inst           32                       # Number of read requests responded to by this memory
system.physmem.num_reads::switch_cpus15.data         4053                       # Number of read requests responded to by this memory
system.physmem.num_reads::total                 43100                       # Number of read requests responded to by this memory
system.physmem.num_writes::writebacks            9681                       # Number of write requests responded to by this memory
system.physmem.num_writes::functional               0                       # Number of write requests responded to by this memory
system.physmem.num_writes::interrupt                0                       # Number of write requests responded to by this memory
system.physmem.num_writes::switch_cpus00.dtb.walker            0                       # Number of write requests responded to by this memory
system.physmem.num_writes::switch_cpus00.itb.walker            0                       # Number of write requests responded to by this memory
system.physmem.num_writes::switch_cpus00.inst            0                       # Number of write requests responded to by this memory
system.physmem.num_writes::switch_cpus00.data            0                       # Number of write requests responded to by this memory
system.physmem.num_writes::switch_cpus01.dtb.walker            0                       # Number of write requests responded to by this memory
system.physmem.num_writes::switch_cpus01.itb.walker            0                       # Number of write requests responded to by this memory
system.physmem.num_writes::switch_cpus01.inst            0                       # Number of write requests responded to by this memory
system.physmem.num_writes::switch_cpus01.data            0                       # Number of write requests responded to by this memory
system.physmem.num_writes::switch_cpus02.dtb.walker            0                       # Number of write requests responded to by this memory
system.physmem.num_writes::switch_cpus02.itb.walker            0                       # Number of write requests responded to by this memory
system.physmem.num_writes::switch_cpus02.inst            0                       # Number of write requests responded to by this memory
system.physmem.num_writes::switch_cpus02.data            0                       # Number of write requests responded to by this memory
system.physmem.num_writes::switch_cpus03.dtb.walker            0                       # Number of write requests responded to by this memory
system.physmem.num_writes::switch_cpus03.itb.walker            0                       # Number of write requests responded to by this memory
system.physmem.num_writes::switch_cpus03.inst            0                       # Number of write requests responded to by this memory
system.physmem.num_writes::switch_cpus03.data            0                       # Number of write requests responded to by this memory
system.physmem.num_writes::switch_cpus04.dtb.walker            0                       # Number of write requests responded to by this memory
system.physmem.num_writes::switch_cpus04.itb.walker            0                       # Number of write requests responded to by this memory
system.physmem.num_writes::switch_cpus04.inst            0                       # Number of write requests responded to by this memory
system.physmem.num_writes::switch_cpus04.data            0                       # Number of write requests responded to by this memory
system.physmem.num_writes::switch_cpus05.dtb.walker            0                       # Number of write requests responded to by this memory
system.physmem.num_writes::switch_cpus05.itb.walker            0                       # Number of write requests responded to by this memory
system.physmem.num_writes::switch_cpus05.inst            0                       # Number of write requests responded to by this memory
system.physmem.num_writes::switch_cpus05.data            0                       # Number of write requests responded to by this memory
system.physmem.num_writes::switch_cpus06.dtb.walker            0                       # Number of write requests responded to by this memory
system.physmem.num_writes::switch_cpus06.itb.walker            0                       # Number of write requests responded to by this memory
system.physmem.num_writes::switch_cpus06.inst            0                       # Number of write requests responded to by this memory
system.physmem.num_writes::switch_cpus06.data            0                       # Number of write requests responded to by this memory
system.physmem.num_writes::switch_cpus07.dtb.walker            0                       # Number of write requests responded to by this memory
system.physmem.num_writes::switch_cpus07.itb.walker            0                       # Number of write requests responded to by this memory
system.physmem.num_writes::switch_cpus07.inst            0                       # Number of write requests responded to by this memory
system.physmem.num_writes::switch_cpus07.data            0                       # Number of write requests responded to by this memory
system.physmem.num_writes::switch_cpus08.dtb.walker            0                       # Number of write requests responded to by this memory
system.physmem.num_writes::switch_cpus08.itb.walker            0                       # Number of write requests responded to by this memory
system.physmem.num_writes::switch_cpus08.inst            0                       # Number of write requests responded to by this memory
system.physmem.num_writes::switch_cpus08.data            0                       # Number of write requests responded to by this memory
system.physmem.num_writes::switch_cpus09.dtb.walker            0                       # Number of write requests responded to by this memory
system.physmem.num_writes::switch_cpus09.itb.walker            0                       # Number of write requests responded to by this memory
system.physmem.num_writes::switch_cpus09.inst            0                       # Number of write requests responded to by this memory
system.physmem.num_writes::switch_cpus09.data            0                       # Number of write requests responded to by this memory
system.physmem.num_writes::switch_cpus10.dtb.walker            0                       # Number of write requests responded to by this memory
system.physmem.num_writes::switch_cpus10.itb.walker            0                       # Number of write requests responded to by this memory
system.physmem.num_writes::switch_cpus10.inst            0                       # Number of write requests responded to by this memory
system.physmem.num_writes::switch_cpus10.data            0                       # Number of write requests responded to by this memory
system.physmem.num_writes::switch_cpus11.dtb.walker            0                       # Number of write requests responded to by this memory
system.physmem.num_writes::switch_cpus11.itb.walker            0                       # Number of write requests responded to by this memory
system.physmem.num_writes::switch_cpus11.inst            0                       # Number of write requests responded to by this memory
system.physmem.num_writes::switch_cpus11.data            0                       # Number of write requests responded to by this memory
system.physmem.num_writes::switch_cpus12.dtb.walker            0                       # Number of write requests responded to by this memory
system.physmem.num_writes::switch_cpus12.itb.walker            0                       # Number of write requests responded to by this memory
system.physmem.num_writes::switch_cpus12.inst            0                       # Number of write requests responded to by this memory
system.physmem.num_writes::switch_cpus12.data            0                       # Number of write requests responded to by this memory
system.physmem.num_writes::switch_cpus13.dtb.walker            0                       # Number of write requests responded to by this memory
system.physmem.num_writes::switch_cpus13.itb.walker            0                       # Number of write requests responded to by this memory
system.physmem.num_writes::switch_cpus13.inst            0                       # Number of write requests responded to by this memory
system.physmem.num_writes::switch_cpus13.data            0                       # Number of write requests responded to by this memory
system.physmem.num_writes::switch_cpus14.dtb.walker            0                       # Number of write requests responded to by this memory
system.physmem.num_writes::switch_cpus14.itb.walker            0                       # Number of write requests responded to by this memory
system.physmem.num_writes::switch_cpus14.inst            0                       # Number of write requests responded to by this memory
system.physmem.num_writes::switch_cpus14.data            0                       # Number of write requests responded to by this memory
system.physmem.num_writes::switch_cpus15.dtb.walker            0                       # Number of write requests responded to by this memory
system.physmem.num_writes::switch_cpus15.itb.walker            0                       # Number of write requests responded to by this memory
system.physmem.num_writes::switch_cpus15.inst            0                       # Number of write requests responded to by this memory
system.physmem.num_writes::switch_cpus15.data            0                       # Number of write requests responded to by this memory
system.physmem.num_writes::cpu00.dtb.walker            0                       # Number of write requests responded to by this memory
system.physmem.num_writes::cpu00.itb.walker            0                       # Number of write requests responded to by this memory
system.physmem.num_writes::cpu00.inst               0                       # Number of write requests responded to by this memory
system.physmem.num_writes::cpu00.data               0                       # Number of write requests responded to by this memory
system.physmem.num_writes::cpu01.dtb.walker            0                       # Number of write requests responded to by this memory
system.physmem.num_writes::cpu01.itb.walker            0                       # Number of write requests responded to by this memory
system.physmem.num_writes::cpu01.inst               0                       # Number of write requests responded to by this memory
system.physmem.num_writes::cpu01.data               0                       # Number of write requests responded to by this memory
system.physmem.num_writes::cpu02.dtb.walker            0                       # Number of write requests responded to by this memory
system.physmem.num_writes::cpu02.itb.walker            0                       # Number of write requests responded to by this memory
system.physmem.num_writes::cpu02.inst               0                       # Number of write requests responded to by this memory
system.physmem.num_writes::cpu02.data               0                       # Number of write requests responded to by this memory
system.physmem.num_writes::cpu03.dtb.walker            0                       # Number of write requests responded to by this memory
system.physmem.num_writes::cpu03.itb.walker            0                       # Number of write requests responded to by this memory
system.physmem.num_writes::cpu03.inst               0                       # Number of write requests responded to by this memory
system.physmem.num_writes::cpu03.data               0                       # Number of write requests responded to by this memory
system.physmem.num_writes::cpu04.dtb.walker            0                       # Number of write requests responded to by this memory
system.physmem.num_writes::cpu04.itb.walker            0                       # Number of write requests responded to by this memory
system.physmem.num_writes::cpu04.inst               0                       # Number of write requests responded to by this memory
system.physmem.num_writes::cpu04.data               0                       # Number of write requests responded to by this memory
system.physmem.num_writes::cpu05.dtb.walker            0                       # Number of write requests responded to by this memory
system.physmem.num_writes::cpu05.itb.walker            0                       # Number of write requests responded to by this memory
system.physmem.num_writes::cpu05.inst               0                       # Number of write requests responded to by this memory
system.physmem.num_writes::cpu05.data               0                       # Number of write requests responded to by this memory
system.physmem.num_writes::cpu06.dtb.walker            0                       # Number of write requests responded to by this memory
system.physmem.num_writes::cpu06.itb.walker            0                       # Number of write requests responded to by this memory
system.physmem.num_writes::cpu06.inst               0                       # Number of write requests responded to by this memory
system.physmem.num_writes::cpu06.data               0                       # Number of write requests responded to by this memory
system.physmem.num_writes::cpu07.dtb.walker            0                       # Number of write requests responded to by this memory
system.physmem.num_writes::cpu07.itb.walker            0                       # Number of write requests responded to by this memory
system.physmem.num_writes::cpu07.inst               0                       # Number of write requests responded to by this memory
system.physmem.num_writes::cpu07.data               0                       # Number of write requests responded to by this memory
system.physmem.num_writes::cpu08.dtb.walker            0                       # Number of write requests responded to by this memory
system.physmem.num_writes::cpu08.itb.walker            0                       # Number of write requests responded to by this memory
system.physmem.num_writes::cpu08.inst               0                       # Number of write requests responded to by this memory
system.physmem.num_writes::cpu08.data               0                       # Number of write requests responded to by this memory
system.physmem.num_writes::cpu09.dtb.walker            0                       # Number of write requests responded to by this memory
system.physmem.num_writes::cpu09.itb.walker            0                       # Number of write requests responded to by this memory
system.physmem.num_writes::cpu09.inst               0                       # Number of write requests responded to by this memory
system.physmem.num_writes::cpu09.data               0                       # Number of write requests responded to by this memory
system.physmem.num_writes::cpu10.dtb.walker            0                       # Number of write requests responded to by this memory
system.physmem.num_writes::cpu10.itb.walker            0                       # Number of write requests responded to by this memory
system.physmem.num_writes::cpu10.inst               0                       # Number of write requests responded to by this memory
system.physmem.num_writes::cpu10.data               0                       # Number of write requests responded to by this memory
system.physmem.num_writes::cpu11.dtb.walker            0                       # Number of write requests responded to by this memory
system.physmem.num_writes::cpu11.itb.walker            0                       # Number of write requests responded to by this memory
system.physmem.num_writes::cpu11.inst               0                       # Number of write requests responded to by this memory
system.physmem.num_writes::cpu11.data               0                       # Number of write requests responded to by this memory
system.physmem.num_writes::cpu12.dtb.walker            0                       # Number of write requests responded to by this memory
system.physmem.num_writes::cpu12.itb.walker            0                       # Number of write requests responded to by this memory
system.physmem.num_writes::cpu12.inst               0                       # Number of write requests responded to by this memory
system.physmem.num_writes::cpu12.data               0                       # Number of write requests responded to by this memory
system.physmem.num_writes::cpu13.dtb.walker            0                       # Number of write requests responded to by this memory
system.physmem.num_writes::cpu13.itb.walker            0                       # Number of write requests responded to by this memory
system.physmem.num_writes::cpu13.inst               0                       # Number of write requests responded to by this memory
system.physmem.num_writes::cpu13.data               0                       # Number of write requests responded to by this memory
system.physmem.num_writes::cpu14.dtb.walker            0                       # Number of write requests responded to by this memory
system.physmem.num_writes::cpu14.itb.walker            0                       # Number of write requests responded to by this memory
system.physmem.num_writes::cpu14.inst               0                       # Number of write requests responded to by this memory
system.physmem.num_writes::cpu14.data               0                       # Number of write requests responded to by this memory
system.physmem.num_writes::cpu15.dtb.walker            0                       # Number of write requests responded to by this memory
system.physmem.num_writes::cpu15.itb.walker            0                       # Number of write requests responded to by this memory
system.physmem.num_writes::cpu15.inst               0                       # Number of write requests responded to by this memory
system.physmem.num_writes::cpu15.data               0                       # Number of write requests responded to by this memory
system.physmem.num_writes::total                 9681                       # Number of write requests responded to by this memory
system.physmem.bw_read::switch_cpus00.inst       291421                       # Total read bandwidth from this memory (bytes/s)
system.physmem.bw_read::switch_cpus00.data     19340610                       # Total read bandwidth from this memory (bytes/s)
system.physmem.bw_read::switch_cpus01.inst       359419                       # Total read bandwidth from this memory (bytes/s)
system.physmem.bw_read::switch_cpus01.data     19865167                       # Total read bandwidth from this memory (bytes/s)
system.physmem.bw_read::switch_cpus02.inst       320563                       # Total read bandwidth from this memory (bytes/s)
system.physmem.bw_read::switch_cpus02.data     39283488                       # Total read bandwidth from this memory (bytes/s)
system.physmem.bw_read::switch_cpus03.inst       378847                       # Total read bandwidth from this memory (bytes/s)
system.physmem.bw_read::switch_cpus03.data     19768026                       # Total read bandwidth from this memory (bytes/s)
system.physmem.bw_read::switch_cpus04.inst       320563                       # Total read bandwidth from this memory (bytes/s)
system.physmem.bw_read::switch_cpus04.data     39254346                       # Total read bandwidth from this memory (bytes/s)
system.physmem.bw_read::switch_cpus05.inst       330277                       # Total read bandwidth from this memory (bytes/s)
system.physmem.bw_read::switch_cpus05.data     19369752                       # Total read bandwidth from this memory (bytes/s)
system.physmem.bw_read::switch_cpus06.inst       301135                       # Total read bandwidth from this memory (bytes/s)
system.physmem.bw_read::switch_cpus06.data     19330896                       # Total read bandwidth from this memory (bytes/s)
system.physmem.bw_read::switch_cpus07.inst       339991                       # Total read bandwidth from this memory (bytes/s)
system.physmem.bw_read::switch_cpus07.data     33911636                       # Total read bandwidth from this memory (bytes/s)
system.physmem.bw_read::switch_cpus08.inst       378847                       # Total read bandwidth from this memory (bytes/s)
system.physmem.bw_read::switch_cpus08.data     13366489                       # Total read bandwidth from this memory (bytes/s)
system.physmem.bw_read::switch_cpus09.inst       330277                       # Total read bandwidth from this memory (bytes/s)
system.physmem.bw_read::switch_cpus09.data     33717356                       # Total read bandwidth from this memory (bytes/s)
system.physmem.bw_read::switch_cpus10.inst       320563                       # Total read bandwidth from this memory (bytes/s)
system.physmem.bw_read::switch_cpus10.data     19340610                       # Total read bandwidth from this memory (bytes/s)
system.physmem.bw_read::switch_cpus11.inst       330277                       # Total read bandwidth from this memory (bytes/s)
system.physmem.bw_read::switch_cpus11.data     19515462                       # Total read bandwidth from this memory (bytes/s)
system.physmem.bw_read::switch_cpus12.inst       281707                       # Total read bandwidth from this memory (bytes/s)
system.physmem.bw_read::switch_cpus12.data     19369752                       # Total read bandwidth from this memory (bytes/s)
system.physmem.bw_read::switch_cpus13.inst       310849                       # Total read bandwidth from this memory (bytes/s)
system.physmem.bw_read::switch_cpus13.data     39264060                       # Total read bandwidth from this memory (bytes/s)
system.physmem.bw_read::switch_cpus14.inst       320563                       # Total read bandwidth from this memory (bytes/s)
system.physmem.bw_read::switch_cpus14.data     19379466                       # Total read bandwidth from this memory (bytes/s)
system.physmem.bw_read::switch_cpus15.inst       310849                       # Total read bandwidth from this memory (bytes/s)
system.physmem.bw_read::switch_cpus15.data     39370915                       # Total read bandwidth from this memory (bytes/s)
system.physmem.bw_read::total               418674171                       # Total read bandwidth from this memory (bytes/s)
system.physmem.bw_inst_read::switch_cpus00.inst       291421                       # Instruction read bandwidth from this memory (bytes/s)
system.physmem.bw_inst_read::switch_cpus01.inst       359419                       # Instruction read bandwidth from this memory (bytes/s)
system.physmem.bw_inst_read::switch_cpus02.inst       320563                       # Instruction read bandwidth from this memory (bytes/s)
system.physmem.bw_inst_read::switch_cpus03.inst       378847                       # Instruction read bandwidth from this memory (bytes/s)
system.physmem.bw_inst_read::switch_cpus04.inst       320563                       # Instruction read bandwidth from this memory (bytes/s)
system.physmem.bw_inst_read::switch_cpus05.inst       330277                       # Instruction read bandwidth from this memory (bytes/s)
system.physmem.bw_inst_read::switch_cpus06.inst       301135                       # Instruction read bandwidth from this memory (bytes/s)
system.physmem.bw_inst_read::switch_cpus07.inst       339991                       # Instruction read bandwidth from this memory (bytes/s)
system.physmem.bw_inst_read::switch_cpus08.inst       378847                       # Instruction read bandwidth from this memory (bytes/s)
system.physmem.bw_inst_read::switch_cpus09.inst       330277                       # Instruction read bandwidth from this memory (bytes/s)
system.physmem.bw_inst_read::switch_cpus10.inst       320563                       # Instruction read bandwidth from this memory (bytes/s)
system.physmem.bw_inst_read::switch_cpus11.inst       330277                       # Instruction read bandwidth from this memory (bytes/s)
system.physmem.bw_inst_read::switch_cpus12.inst       281707                       # Instruction read bandwidth from this memory (bytes/s)
system.physmem.bw_inst_read::switch_cpus13.inst       310849                       # Instruction read bandwidth from this memory (bytes/s)
system.physmem.bw_inst_read::switch_cpus14.inst       320563                       # Instruction read bandwidth from this memory (bytes/s)
system.physmem.bw_inst_read::switch_cpus15.inst       310849                       # Instruction read bandwidth from this memory (bytes/s)
system.physmem.bw_inst_read::total            5226142                       # Instruction read bandwidth from this memory (bytes/s)
system.physmem.bw_write::writebacks          94041407                       # Write bandwidth from this memory (bytes/s)
system.physmem.bw_write::total               94041407                       # Write bandwidth from this memory (bytes/s)
system.physmem.bw_total::writebacks          94041407                       # Total bandwidth to/from this memory (bytes/s)
system.physmem.bw_total::switch_cpus00.inst       291421                       # Total bandwidth to/from this memory (bytes/s)
system.physmem.bw_total::switch_cpus00.data     19340610                       # Total bandwidth to/from this memory (bytes/s)
system.physmem.bw_total::switch_cpus01.inst       359419                       # Total bandwidth to/from this memory (bytes/s)
system.physmem.bw_total::switch_cpus01.data     19865167                       # Total bandwidth to/from this memory (bytes/s)
system.physmem.bw_total::switch_cpus02.inst       320563                       # Total bandwidth to/from this memory (bytes/s)
system.physmem.bw_total::switch_cpus02.data     39283488                       # Total bandwidth to/from this memory (bytes/s)
system.physmem.bw_total::switch_cpus03.inst       378847                       # Total bandwidth to/from this memory (bytes/s)
system.physmem.bw_total::switch_cpus03.data     19768026                       # Total bandwidth to/from this memory (bytes/s)
system.physmem.bw_total::switch_cpus04.inst       320563                       # Total bandwidth to/from this memory (bytes/s)
system.physmem.bw_total::switch_cpus04.data     39254346                       # Total bandwidth to/from this memory (bytes/s)
system.physmem.bw_total::switch_cpus05.inst       330277                       # Total bandwidth to/from this memory (bytes/s)
system.physmem.bw_total::switch_cpus05.data     19369752                       # Total bandwidth to/from this memory (bytes/s)
system.physmem.bw_total::switch_cpus06.inst       301135                       # Total bandwidth to/from this memory (bytes/s)
system.physmem.bw_total::switch_cpus06.data     19330896                       # Total bandwidth to/from this memory (bytes/s)
system.physmem.bw_total::switch_cpus07.inst       339991                       # Total bandwidth to/from this memory (bytes/s)
system.physmem.bw_total::switch_cpus07.data     33911636                       # Total bandwidth to/from this memory (bytes/s)
system.physmem.bw_total::switch_cpus08.inst       378847                       # Total bandwidth to/from this memory (bytes/s)
system.physmem.bw_total::switch_cpus08.data     13366489                       # Total bandwidth to/from this memory (bytes/s)
system.physmem.bw_total::switch_cpus09.inst       330277                       # Total bandwidth to/from this memory (bytes/s)
system.physmem.bw_total::switch_cpus09.data     33717356                       # Total bandwidth to/from this memory (bytes/s)
system.physmem.bw_total::switch_cpus10.inst       320563                       # Total bandwidth to/from this memory (bytes/s)
system.physmem.bw_total::switch_cpus10.data     19340610                       # Total bandwidth to/from this memory (bytes/s)
system.physmem.bw_total::switch_cpus11.inst       330277                       # Total bandwidth to/from this memory (bytes/s)
system.physmem.bw_total::switch_cpus11.data     19515462                       # Total bandwidth to/from this memory (bytes/s)
system.physmem.bw_total::switch_cpus12.inst       281707                       # Total bandwidth to/from this memory (bytes/s)
system.physmem.bw_total::switch_cpus12.data     19369752                       # Total bandwidth to/from this memory (bytes/s)
system.physmem.bw_total::switch_cpus13.inst       310849                       # Total bandwidth to/from this memory (bytes/s)
system.physmem.bw_total::switch_cpus13.data     39264060                       # Total bandwidth to/from this memory (bytes/s)
system.physmem.bw_total::switch_cpus14.inst       320563                       # Total bandwidth to/from this memory (bytes/s)
system.physmem.bw_total::switch_cpus14.data     19379466                       # Total bandwidth to/from this memory (bytes/s)
system.physmem.bw_total::switch_cpus15.inst       310849                       # Total bandwidth to/from this memory (bytes/s)
system.physmem.bw_total::switch_cpus15.data     39370915                       # Total bandwidth to/from this memory (bytes/s)
system.physmem.bw_total::total              512715578                       # Total bandwidth to/from this memory (bytes/s)
system.switch_cpus00.dtb.inst_hits                  0                       # ITB inst hits
system.switch_cpus00.dtb.inst_misses                0                       # ITB inst misses
system.switch_cpus00.dtb.read_hits                  0                       # DTB read hits
system.switch_cpus00.dtb.read_misses                0                       # DTB read misses
system.switch_cpus00.dtb.write_hits                 0                       # DTB write hits
system.switch_cpus00.dtb.write_misses               0                       # DTB write misses
system.switch_cpus00.dtb.flush_tlb                  0                       # Number of times complete TLB was flushed
system.switch_cpus00.dtb.flush_tlb_mva              0                       # Number of times TLB was flushed by MVA
system.switch_cpus00.dtb.flush_tlb_mva_asid            0                       # Number of times TLB was flushed by MVA & ASID
system.switch_cpus00.dtb.flush_tlb_asid             0                       # Number of times TLB was flushed by ASID
system.switch_cpus00.dtb.flush_entries              0                       # Number of entries that have been flushed from TLB
system.switch_cpus00.dtb.align_faults               0                       # Number of TLB faults due to alignment restrictions
system.switch_cpus00.dtb.prefetch_faults            0                       # Number of TLB faults due to prefetch
system.switch_cpus00.dtb.domain_faults              0                       # Number of TLB faults due to domain restrictions
system.switch_cpus00.dtb.perms_faults               0                       # Number of TLB faults due to permissions restrictions
system.switch_cpus00.dtb.read_accesses              0                       # DTB read accesses
system.switch_cpus00.dtb.write_accesses             0                       # DTB write accesses
system.switch_cpus00.dtb.inst_accesses              0                       # ITB inst accesses
system.switch_cpus00.dtb.hits                       0                       # DTB hits
system.switch_cpus00.dtb.misses                     0                       # DTB misses
system.switch_cpus00.dtb.accesses                   0                       # DTB accesses
system.switch_cpus00.itb.inst_hits                  0                       # ITB inst hits
system.switch_cpus00.itb.inst_misses                0                       # ITB inst misses
system.switch_cpus00.itb.read_hits                  0                       # DTB read hits
system.switch_cpus00.itb.read_misses                0                       # DTB read misses
system.switch_cpus00.itb.write_hits                 0                       # DTB write hits
system.switch_cpus00.itb.write_misses               0                       # DTB write misses
system.switch_cpus00.itb.flush_tlb                  0                       # Number of times complete TLB was flushed
system.switch_cpus00.itb.flush_tlb_mva              0                       # Number of times TLB was flushed by MVA
system.switch_cpus00.itb.flush_tlb_mva_asid            0                       # Number of times TLB was flushed by MVA & ASID
system.switch_cpus00.itb.flush_tlb_asid             0                       # Number of times TLB was flushed by ASID
system.switch_cpus00.itb.flush_entries              0                       # Number of entries that have been flushed from TLB
system.switch_cpus00.itb.align_faults               0                       # Number of TLB faults due to alignment restrictions
system.switch_cpus00.itb.prefetch_faults            0                       # Number of TLB faults due to prefetch
system.switch_cpus00.itb.domain_faults              0                       # Number of TLB faults due to domain restrictions
system.switch_cpus00.itb.perms_faults               0                       # Number of TLB faults due to permissions restrictions
system.switch_cpus00.itb.read_accesses              0                       # DTB read accesses
system.switch_cpus00.itb.write_accesses             0                       # DTB write accesses
system.switch_cpus00.itb.inst_accesses              0                       # ITB inst accesses
system.switch_cpus00.itb.hits                       0                       # DTB hits
system.switch_cpus00.itb.misses                     0                       # DTB misses
system.switch_cpus00.itb.accesses                   0                       # DTB accesses
system.cpu00.workload.num_syscalls                  3                       # Number of system calls
system.switch_cpus00.numCycles               31599123                       # number of cpu cycles simulated
system.switch_cpus00.numWorkItemsStarted            0                       # number of work items this cpu started
system.switch_cpus00.numWorkItemsCompleted            0                       # number of work items this cpu completed
system.switch_cpus00.BPredUnit.lookups        2182890                       # Number of BP lookups
system.switch_cpus00.BPredUnit.condPredicted      1952898                       # Number of conditional branches predicted
system.switch_cpus00.BPredUnit.condIncorrect       175133                       # Number of conditional branches incorrect
system.switch_cpus00.BPredUnit.BTBLookups      1459380                       # Number of BTB lookups
system.switch_cpus00.BPredUnit.BTBHits        1434549                       # Number of BTB hits
system.switch_cpus00.BPredUnit.BTBCorrect            0                       # Number of correct BTB predictions (this stat may not work properly.
system.switch_cpus00.BPredUnit.usedRAS         128456                       # Number of times the RAS was used to get a target.
system.switch_cpus00.BPredUnit.RASInCorrect         5297                       # Number of incorrect RAS predictions.
system.switch_cpus00.fetch.icacheStallCycles     23123110                       # Number of cycles fetch is stalled on an Icache miss
system.switch_cpus00.fetch.Insts             12408475                       # Number of instructions fetch has processed
system.switch_cpus00.fetch.Branches           2182890                       # Number of branches that fetch encountered
system.switch_cpus00.fetch.predictedBranches      1563005                       # Number of branches that fetch has predicted taken
system.switch_cpus00.fetch.Cycles             2767716                       # Number of cycles fetch has run and was not squashing or blocked
system.switch_cpus00.fetch.SquashCycles        576146                       # Number of cycles fetch has spent squashing
system.switch_cpus00.fetch.BlockedCycles       916741                       # Number of cycles fetch has spent blocked
system.switch_cpus00.fetch.MiscStallCycles            1                       # Number of cycles fetch has spent waiting on interrupts, or bad addresses, or out of MSHRs
system.switch_cpus00.fetch.PendingTrapStallCycles           29                       # Number of stall cycles due to pending traps
system.switch_cpus00.fetch.CacheLines         1400208                       # Number of cache lines fetched
system.switch_cpus00.fetch.IcacheSquashes       171615                       # Number of outstanding Icache misses that were squashed
system.switch_cpus00.fetch.rateDist::samples     27207644                       # Number of instructions fetched each cycle (Total)
system.switch_cpus00.fetch.rateDist::mean     0.510125                       # Number of instructions fetched each cycle (Total)
system.switch_cpus00.fetch.rateDist::stdev     1.744366                       # Number of instructions fetched each cycle (Total)
system.switch_cpus00.fetch.rateDist::underflows            0      0.00%      0.00% # Number of instructions fetched each cycle (Total)
system.switch_cpus00.fetch.rateDist::0       24439928     89.83%     89.83% # Number of instructions fetched each cycle (Total)
system.switch_cpus00.fetch.rateDist::1         426465      1.57%     91.39% # Number of instructions fetched each cycle (Total)
system.switch_cpus00.fetch.rateDist::2         210379      0.77%     92.17% # Number of instructions fetched each cycle (Total)
system.switch_cpus00.fetch.rateDist::3         420721      1.55%     93.71% # Number of instructions fetched each cycle (Total)
system.switch_cpus00.fetch.rateDist::4         130957      0.48%     94.20% # Number of instructions fetched each cycle (Total)
system.switch_cpus00.fetch.rateDist::5         390197      1.43%     95.63% # Number of instructions fetched each cycle (Total)
system.switch_cpus00.fetch.rateDist::6          60271      0.22%     95.85% # Number of instructions fetched each cycle (Total)
system.switch_cpus00.fetch.rateDist::7          96329      0.35%     96.21% # Number of instructions fetched each cycle (Total)
system.switch_cpus00.fetch.rateDist::8        1032397      3.79%    100.00% # Number of instructions fetched each cycle (Total)
system.switch_cpus00.fetch.rateDist::overflows            0      0.00%    100.00% # Number of instructions fetched each cycle (Total)
system.switch_cpus00.fetch.rateDist::min_value            0                       # Number of instructions fetched each cycle (Total)
system.switch_cpus00.fetch.rateDist::max_value            8                       # Number of instructions fetched each cycle (Total)
system.switch_cpus00.fetch.rateDist::total     27207644                       # Number of instructions fetched each cycle (Total)
system.switch_cpus00.fetch.branchRate        0.069081                       # Number of branch fetches per cycle
system.switch_cpus00.fetch.rate              0.392684                       # Number of inst fetches per cycle
system.switch_cpus00.decode.IdleCycles       22921290                       # Number of cycles decode is idle
system.switch_cpus00.decode.BlockedCycles      1124175                       # Number of cycles decode is blocked
system.switch_cpus00.decode.RunCycles         2762033                       # Number of cycles decode is running
system.switch_cpus00.decode.UnblockCycles         2299                       # Number of cycles decode is unblocking
system.switch_cpus00.decode.SquashCycles       397843                       # Number of cycles decode is squashing
system.switch_cpus00.decode.BranchResolved       202853                       # Number of times decode resolved a branch
system.switch_cpus00.decode.BranchMispred         2204                       # Number of times decode detected a branch misprediction
system.switch_cpus00.decode.DecodedInsts     13854799                       # Number of instructions handled by decode
system.switch_cpus00.decode.SquashedInsts         5071                       # Number of squashed instructions handled by decode
system.switch_cpus00.rename.SquashCycles       397843                       # Number of cycles rename is squashing
system.switch_cpus00.rename.IdleCycles       22944980                       # Number of cycles rename is idle
system.switch_cpus00.rename.BlockCycles        710753                       # Number of cycles rename is blocking
system.switch_cpus00.rename.serializeStallCycles       339461                       # count of cycles rename stalled for serializing inst
system.switch_cpus00.rename.RunCycles         2738248                       # Number of cycles rename is running
system.switch_cpus00.rename.UnblockCycles        76355                       # Number of cycles rename is unblocking
system.switch_cpus00.rename.RenamedInsts     13833692                       # Number of instructions processed by rename
system.switch_cpus00.rename.ROBFullEvents           28                       # Number of times rename has blocked due to ROB full
system.switch_cpus00.rename.IQFullEvents        10747                       # Number of times rename has blocked due to IQ full
system.switch_cpus00.rename.LSQFullEvents        57282                       # Number of times rename has blocked due to LSQ full
system.switch_cpus00.rename.RenamedOperands     18105413                       # Number of destination operands rename has renamed
system.switch_cpus00.rename.RenameLookups     62655218                       # Number of register rename lookups that rename has made
system.switch_cpus00.rename.int_rename_lookups     62655218                       # Number of integer rename lookups
system.switch_cpus00.rename.CommittedMaps     14646430                       # Number of HB maps that are committed
system.switch_cpus00.rename.UndoneMaps        3458965                       # Number of HB maps that are undone due to squashing
system.switch_cpus00.rename.serializingInsts         1828                       # count of serializing insts renamed
system.switch_cpus00.rename.tempSerializingInsts          929                       # count of temporary serializing insts renamed
system.switch_cpus00.rename.skidInsts          179807                       # count of insts added to the skid buffer
system.switch_cpus00.memDep0.insertedLoads      2518212                       # Number of loads inserted to the mem dependence unit.
system.switch_cpus00.memDep0.insertedStores       398634                       # Number of stores inserted to the mem dependence unit.
system.switch_cpus00.memDep0.conflictingLoads         3375                       # Number of conflicting loads.
system.switch_cpus00.memDep0.conflictingStores        90720                       # Number of conflicting stores.
system.switch_cpus00.iq.iqInstsAdded         13761413                       # Number of instructions added to the IQ (excludes non-spec)
system.switch_cpus00.iq.iqNonSpecInstsAdded         1834                       # Number of non-speculative instructions added to the IQ
system.switch_cpus00.iq.iqInstsIssued        12873582                       # Number of instructions issued
system.switch_cpus00.iq.iqSquashedInstsIssued         8652                       # Number of squashed instructions issued
system.switch_cpus00.iq.iqSquashedInstsExamined      2508867                       # Number of squashed instructions iterated over during squash; mainly for profiling
system.switch_cpus00.iq.iqSquashedOperandsExamined      5154337                       # Number of squashed operands that are examined and possibly removed from graph
system.switch_cpus00.iq.iqSquashedNonSpecRemoved           17                       # Number of squashed non-spec instructions that were removed
system.switch_cpus00.iq.issued_per_cycle::samples     27207644                       # Number of insts issued each cycle
system.switch_cpus00.iq.issued_per_cycle::mean     0.473160                       # Number of insts issued each cycle
system.switch_cpus00.iq.issued_per_cycle::stdev     1.085159                       # Number of insts issued each cycle
system.switch_cpus00.iq.issued_per_cycle::underflows            0      0.00%      0.00% # Number of insts issued each cycle
system.switch_cpus00.iq.issued_per_cycle::0     21564607     79.26%     79.26% # Number of insts issued each cycle
system.switch_cpus00.iq.issued_per_cycle::1      1753251      6.44%     85.70% # Number of insts issued each cycle
system.switch_cpus00.iq.issued_per_cycle::2      1916212      7.04%     92.75% # Number of insts issued each cycle
system.switch_cpus00.iq.issued_per_cycle::3      1100443      4.04%     96.79% # Number of insts issued each cycle
system.switch_cpus00.iq.issued_per_cycle::4       561138      2.06%     98.85% # Number of insts issued each cycle
system.switch_cpus00.iq.issued_per_cycle::5       140355      0.52%     99.37% # Number of insts issued each cycle
system.switch_cpus00.iq.issued_per_cycle::6       164479      0.60%     99.97% # Number of insts issued each cycle
system.switch_cpus00.iq.issued_per_cycle::7         3895      0.01%     99.99% # Number of insts issued each cycle
system.switch_cpus00.iq.issued_per_cycle::8         3264      0.01%    100.00% # Number of insts issued each cycle
system.switch_cpus00.iq.issued_per_cycle::overflows            0      0.00%    100.00% # Number of insts issued each cycle
system.switch_cpus00.iq.issued_per_cycle::min_value            0                       # Number of insts issued each cycle
system.switch_cpus00.iq.issued_per_cycle::max_value            8                       # Number of insts issued each cycle
system.switch_cpus00.iq.issued_per_cycle::total     27207644                       # Number of insts issued each cycle
system.switch_cpus00.iq.fu_full::No_OpClass            0      0.00%      0.00% # attempts to use FU when none available
system.switch_cpus00.iq.fu_full::IntAlu         21166     57.14%     57.14% # attempts to use FU when none available
system.switch_cpus00.iq.fu_full::IntMult            0      0.00%     57.14% # attempts to use FU when none available
system.switch_cpus00.iq.fu_full::IntDiv             0      0.00%     57.14% # attempts to use FU when none available
system.switch_cpus00.iq.fu_full::FloatAdd            0      0.00%     57.14% # attempts to use FU when none available
system.switch_cpus00.iq.fu_full::FloatCmp            0      0.00%     57.14% # attempts to use FU when none available
system.switch_cpus00.iq.fu_full::FloatCvt            0      0.00%     57.14% # attempts to use FU when none available
system.switch_cpus00.iq.fu_full::FloatMult            0      0.00%     57.14% # attempts to use FU when none available
system.switch_cpus00.iq.fu_full::FloatDiv            0      0.00%     57.14% # attempts to use FU when none available
system.switch_cpus00.iq.fu_full::FloatSqrt            0      0.00%     57.14% # attempts to use FU when none available
system.switch_cpus00.iq.fu_full::SimdAdd            0      0.00%     57.14% # attempts to use FU when none available
system.switch_cpus00.iq.fu_full::SimdAddAcc            0      0.00%     57.14% # attempts to use FU when none available
system.switch_cpus00.iq.fu_full::SimdAlu            0      0.00%     57.14% # attempts to use FU when none available
system.switch_cpus00.iq.fu_full::SimdCmp            0      0.00%     57.14% # attempts to use FU when none available
system.switch_cpus00.iq.fu_full::SimdCvt            0      0.00%     57.14% # attempts to use FU when none available
system.switch_cpus00.iq.fu_full::SimdMisc            0      0.00%     57.14% # attempts to use FU when none available
system.switch_cpus00.iq.fu_full::SimdMult            0      0.00%     57.14% # attempts to use FU when none available
system.switch_cpus00.iq.fu_full::SimdMultAcc            0      0.00%     57.14% # attempts to use FU when none available
system.switch_cpus00.iq.fu_full::SimdShift            0      0.00%     57.14% # attempts to use FU when none available
system.switch_cpus00.iq.fu_full::SimdShiftAcc            0      0.00%     57.14% # attempts to use FU when none available
system.switch_cpus00.iq.fu_full::SimdSqrt            0      0.00%     57.14% # attempts to use FU when none available
system.switch_cpus00.iq.fu_full::SimdFloatAdd            0      0.00%     57.14% # attempts to use FU when none available
system.switch_cpus00.iq.fu_full::SimdFloatAlu            0      0.00%     57.14% # attempts to use FU when none available
system.switch_cpus00.iq.fu_full::SimdFloatCmp            0      0.00%     57.14% # attempts to use FU when none available
system.switch_cpus00.iq.fu_full::SimdFloatCvt            0      0.00%     57.14% # attempts to use FU when none available
system.switch_cpus00.iq.fu_full::SimdFloatDiv            0      0.00%     57.14% # attempts to use FU when none available
system.switch_cpus00.iq.fu_full::SimdFloatMisc            0      0.00%     57.14% # attempts to use FU when none available
system.switch_cpus00.iq.fu_full::SimdFloatMult            0      0.00%     57.14% # attempts to use FU when none available
system.switch_cpus00.iq.fu_full::SimdFloatMultAcc            0      0.00%     57.14% # attempts to use FU when none available
system.switch_cpus00.iq.fu_full::SimdFloatSqrt            0      0.00%     57.14% # attempts to use FU when none available
system.switch_cpus00.iq.fu_full::MemRead         8703     23.50%     80.64% # attempts to use FU when none available
system.switch_cpus00.iq.fu_full::MemWrite         7171     19.36%    100.00% # attempts to use FU when none available
system.switch_cpus00.iq.fu_full::IprAccess            0      0.00%    100.00% # attempts to use FU when none available
system.switch_cpus00.iq.fu_full::InstPrefetch            0      0.00%    100.00% # attempts to use FU when none available
system.switch_cpus00.iq.FU_type_0::No_OpClass            0      0.00%      0.00% # Type of FU issued
system.switch_cpus00.iq.FU_type_0::IntAlu     10081173     78.31%     78.31% # Type of FU issued
system.switch_cpus00.iq.FU_type_0::IntMult        99410      0.77%     79.08% # Type of FU issued
system.switch_cpus00.iq.FU_type_0::IntDiv            0      0.00%     79.08% # Type of FU issued
system.switch_cpus00.iq.FU_type_0::FloatAdd            0      0.00%     79.08% # Type of FU issued
system.switch_cpus00.iq.FU_type_0::FloatCmp            0      0.00%     79.08% # Type of FU issued
system.switch_cpus00.iq.FU_type_0::FloatCvt            0      0.00%     79.08% # Type of FU issued
system.switch_cpus00.iq.FU_type_0::FloatMult            0      0.00%     79.08% # Type of FU issued
system.switch_cpus00.iq.FU_type_0::FloatDiv            0      0.00%     79.08% # Type of FU issued
system.switch_cpus00.iq.FU_type_0::FloatSqrt            0      0.00%     79.08% # Type of FU issued
system.switch_cpus00.iq.FU_type_0::SimdAdd            0      0.00%     79.08% # Type of FU issued
system.switch_cpus00.iq.FU_type_0::SimdAddAcc            0      0.00%     79.08% # Type of FU issued
system.switch_cpus00.iq.FU_type_0::SimdAlu            0      0.00%     79.08% # Type of FU issued
system.switch_cpus00.iq.FU_type_0::SimdCmp            0      0.00%     79.08% # Type of FU issued
system.switch_cpus00.iq.FU_type_0::SimdCvt            0      0.00%     79.08% # Type of FU issued
system.switch_cpus00.iq.FU_type_0::SimdMisc            0      0.00%     79.08% # Type of FU issued
system.switch_cpus00.iq.FU_type_0::SimdMult            0      0.00%     79.08% # Type of FU issued
system.switch_cpus00.iq.FU_type_0::SimdMultAcc            0      0.00%     79.08% # Type of FU issued
system.switch_cpus00.iq.FU_type_0::SimdShift            0      0.00%     79.08% # Type of FU issued
system.switch_cpus00.iq.FU_type_0::SimdShiftAcc            0      0.00%     79.08% # Type of FU issued
system.switch_cpus00.iq.FU_type_0::SimdSqrt            0      0.00%     79.08% # Type of FU issued
system.switch_cpus00.iq.FU_type_0::SimdFloatAdd            0      0.00%     79.08% # Type of FU issued
system.switch_cpus00.iq.FU_type_0::SimdFloatAlu            0      0.00%     79.08% # Type of FU issued
system.switch_cpus00.iq.FU_type_0::SimdFloatCmp            0      0.00%     79.08% # Type of FU issued
system.switch_cpus00.iq.FU_type_0::SimdFloatCvt            0      0.00%     79.08% # Type of FU issued
system.switch_cpus00.iq.FU_type_0::SimdFloatDiv            0      0.00%     79.08% # Type of FU issued
system.switch_cpus00.iq.FU_type_0::SimdFloatMisc          901      0.01%     79.09% # Type of FU issued
system.switch_cpus00.iq.FU_type_0::SimdFloatMult            0      0.00%     79.09% # Type of FU issued
system.switch_cpus00.iq.FU_type_0::SimdFloatMultAcc            0      0.00%     79.09% # Type of FU issued
system.switch_cpus00.iq.FU_type_0::SimdFloatSqrt            0      0.00%     79.09% # Type of FU issued
system.switch_cpus00.iq.FU_type_0::MemRead      2297043     17.84%     96.93% # Type of FU issued
system.switch_cpus00.iq.FU_type_0::MemWrite       395055      3.07%    100.00% # Type of FU issued
system.switch_cpus00.iq.FU_type_0::IprAccess            0      0.00%    100.00% # Type of FU issued
system.switch_cpus00.iq.FU_type_0::InstPrefetch            0      0.00%    100.00% # Type of FU issued
system.switch_cpus00.iq.FU_type_0::total     12873582                       # Type of FU issued
system.switch_cpus00.iq.rate                 0.407403                       # Inst issue rate
system.switch_cpus00.iq.fu_busy_cnt             37040                       # FU busy when requested
system.switch_cpus00.iq.fu_busy_rate         0.002877                       # FU busy rate (busy events/executed inst)
system.switch_cpus00.iq.int_inst_queue_reads     53000499                       # Number of integer instruction queue reads
system.switch_cpus00.iq.int_inst_queue_writes     16272157                       # Number of integer instruction queue writes
system.switch_cpus00.iq.int_inst_queue_wakeup_accesses     12545011                       # Number of integer instruction queue wakeup accesses
system.switch_cpus00.iq.fp_inst_queue_reads            0                       # Number of floating instruction queue reads
system.switch_cpus00.iq.fp_inst_queue_writes            0                       # Number of floating instruction queue writes
system.switch_cpus00.iq.fp_inst_queue_wakeup_accesses            0                       # Number of floating instruction queue wakeup accesses
system.switch_cpus00.iq.int_alu_accesses     12910622                       # Number of integer alu accesses
system.switch_cpus00.iq.fp_alu_accesses             0                       # Number of floating point alu accesses
system.switch_cpus00.iew.lsq.thread0.forwLoads        10376                       # Number of loads that had data forwarded from stores
system.switch_cpus00.iew.lsq.thread0.invAddrLoads            0                       # Number of loads ignored due to an invalid address
system.switch_cpus00.iew.lsq.thread0.squashedLoads       515254                       # Number of loads squashed
system.switch_cpus00.iew.lsq.thread0.ignoredResponses           11                       # Number of memory responses ignored because the instruction is squashed
system.switch_cpus00.iew.lsq.thread0.memOrderViolation           46                       # Number of memory ordering violations
system.switch_cpus00.iew.lsq.thread0.squashedStores        10327                       # Number of stores squashed
system.switch_cpus00.iew.lsq.thread0.invAddrSwpfs            0                       # Number of software prefetches ignored due to an invalid address
system.switch_cpus00.iew.lsq.thread0.blockedLoads            0                       # Number of blocked loads due to partial load-store forwarding
system.switch_cpus00.iew.lsq.thread0.rescheduledLoads            0                       # Number of loads that were rescheduled
system.switch_cpus00.iew.lsq.thread0.cacheBlocked            0                       # Number of times an access to memory failed due to the cache being blocked
system.switch_cpus00.iew.iewIdleCycles              0                       # Number of cycles IEW is idle
system.switch_cpus00.iew.iewSquashCycles       397843                       # Number of cycles IEW is squashing
system.switch_cpus00.iew.iewBlockCycles        627780                       # Number of cycles IEW is blocking
system.switch_cpus00.iew.iewUnblockCycles         9008                       # Number of cycles IEW is unblocking
system.switch_cpus00.iew.iewDispatchedInsts     13763263                       # Number of instructions dispatched to IQ
system.switch_cpus00.iew.iewDispSquashedInsts         1771                       # Number of squashed instructions skipped by dispatch
system.switch_cpus00.iew.iewDispLoadInsts      2518212                       # Number of dispatched load instructions
system.switch_cpus00.iew.iewDispStoreInsts       398634                       # Number of dispatched store instructions
system.switch_cpus00.iew.iewDispNonSpecInsts          927                       # Number of dispatched non-speculative instructions
system.switch_cpus00.iew.iewIQFullEvents         4516                       # Number of times the IQ has become full, causing a stall
system.switch_cpus00.iew.iewLSQFullEvents          233                       # Number of times the LSQ has become full, causing a stall
system.switch_cpus00.iew.memOrderViolationEvents           46                       # Number of memory order violations
system.switch_cpus00.iew.predictedTakenIncorrect       117395                       # Number of branches that were predicted taken incorrectly
system.switch_cpus00.iew.predictedNotTakenIncorrect        67915                       # Number of branches that were predicted not taken incorrectly
system.switch_cpus00.iew.branchMispredicts       185310                       # Number of branch mispredicts detected at execute
system.switch_cpus00.iew.iewExecutedInsts     12711457                       # Number of executed instructions
system.switch_cpus00.iew.iewExecLoadInsts      2264958                       # Number of load instructions executed
system.switch_cpus00.iew.iewExecSquashedInsts       162124                       # Number of squashed instructions skipped in execute
system.switch_cpus00.iew.exec_swp                   0                       # number of swp insts executed
system.switch_cpus00.iew.exec_nop                  16                       # number of nop insts executed
system.switch_cpus00.iew.exec_refs            2659973                       # number of memory reference insts executed
system.switch_cpus00.iew.exec_branches        1934292                       # Number of branches executed
system.switch_cpus00.iew.exec_stores           395015                       # Number of stores executed
system.switch_cpus00.iew.exec_rate           0.402272                       # Inst execution rate
system.switch_cpus00.iew.wb_sent             12548008                       # cumulative count of insts sent to commit
system.switch_cpus00.iew.wb_count            12545011                       # cumulative count of insts written-back
system.switch_cpus00.iew.wb_producers         7598761                       # num instructions producing a value
system.switch_cpus00.iew.wb_consumers        16454201                       # num instructions consuming a value
system.switch_cpus00.iew.wb_penalized               0                       # number of instrctions required to write to 'other' IQ
system.switch_cpus00.iew.wb_rate             0.397005                       # insts written-back per cycle
system.switch_cpus00.iew.wb_fanout           0.461813                       # average fanout of values written-back
system.switch_cpus00.iew.wb_penalized_rate            0                       # fraction of instructions written-back that wrote to 'other' IQ
system.switch_cpus00.commit.commitCommittedInsts     10000002                       # The number of committed instructions
system.switch_cpus00.commit.commitCommittedOps     11236447                       # The number of committed instructions
system.switch_cpus00.commit.commitSquashedInsts      2527332                       # The number of squashed insts skipped by commit
system.switch_cpus00.commit.commitNonSpecStalls         1817                       # The number of times commit has been forced to stall to communicate backwards
system.switch_cpus00.commit.branchMispredicts       173861                       # The number of times a branch was mispredicted
system.switch_cpus00.commit.committed_per_cycle::samples     26809801                       # Number of insts commited each cycle
system.switch_cpus00.commit.committed_per_cycle::mean     0.419117                       # Number of insts commited each cycle
system.switch_cpus00.commit.committed_per_cycle::stdev     1.287031                       # Number of insts commited each cycle
system.switch_cpus00.commit.committed_per_cycle::underflows            0      0.00%      0.00% # Number of insts commited each cycle
system.switch_cpus00.commit.committed_per_cycle::0     22636164     84.43%     84.43% # Number of insts commited each cycle
system.switch_cpus00.commit.committed_per_cycle::1      1632453      6.09%     90.52% # Number of insts commited each cycle
system.switch_cpus00.commit.committed_per_cycle::2      1055930      3.94%     94.46% # Number of insts commited each cycle
system.switch_cpus00.commit.committed_per_cycle::3       330932      1.23%     95.69% # Number of insts commited each cycle
system.switch_cpus00.commit.committed_per_cycle::4       555614      2.07%     97.77% # Number of insts commited each cycle
system.switch_cpus00.commit.committed_per_cycle::5       105580      0.39%     98.16% # Number of insts commited each cycle
system.switch_cpus00.commit.committed_per_cycle::6        67517      0.25%     98.41% # Number of insts commited each cycle
system.switch_cpus00.commit.committed_per_cycle::7        61008      0.23%     98.64% # Number of insts commited each cycle
system.switch_cpus00.commit.committed_per_cycle::8       364603      1.36%    100.00% # Number of insts commited each cycle
system.switch_cpus00.commit.committed_per_cycle::overflows            0      0.00%    100.00% # Number of insts commited each cycle
system.switch_cpus00.commit.committed_per_cycle::min_value            0                       # Number of insts commited each cycle
system.switch_cpus00.commit.committed_per_cycle::max_value            8                       # Number of insts commited each cycle
system.switch_cpus00.commit.committed_per_cycle::total     26809801                       # Number of insts commited each cycle
system.switch_cpus00.commit.committedInsts     10000002                       # Number of instructions committed
system.switch_cpus00.commit.committedOps     11236447                       # Number of ops (including micro ops) committed
system.switch_cpus00.commit.swp_count               0                       # Number of s/w prefetches committed
system.switch_cpus00.commit.refs              2391262                       # Number of memory references committed
system.switch_cpus00.commit.loads             2002955                       # Number of loads committed
system.switch_cpus00.commit.membars               907                       # Number of memory barriers committed
system.switch_cpus00.commit.branches          1725938                       # Number of branches committed
system.switch_cpus00.commit.fp_insts                0                       # Number of committed floating point instructions.
system.switch_cpus00.commit.int_insts         9812683                       # Number of committed integer instructions.
system.switch_cpus00.commit.function_calls       138175                       # Number of function calls committed.
system.switch_cpus00.commit.bw_lim_events       364603                       # number cycles where commit BW limit reached
system.switch_cpus00.commit.bw_limited              0                       # number of insts not committed due to BW limits
system.switch_cpus00.rob.rob_reads           40208938                       # The number of ROB reads
system.switch_cpus00.rob.rob_writes          27925740                       # The number of ROB writes
system.switch_cpus00.timesIdled                518962                       # Number of times that the entire CPU went into an idle state and unscheduled itself
system.switch_cpus00.idleCycles               4391479                       # Total number of cycles that the CPU has spent unscheduled due to idling
system.switch_cpus00.committedInsts          10000002                       # Number of Instructions Simulated
system.switch_cpus00.committedOps            11236447                       # Number of Ops (including micro ops) Simulated
system.switch_cpus00.committedInsts_total     10000002                       # Number of Instructions Simulated
system.switch_cpus00.cpi                     3.159912                       # CPI: Cycles Per Instruction
system.switch_cpus00.cpi_total               3.159912                       # CPI: Total CPI of All Threads
system.switch_cpus00.ipc                     0.316465                       # IPC: Instructions Per Cycle
system.switch_cpus00.ipc_total               0.316465                       # IPC: Total IPC of All Threads
system.switch_cpus00.int_regfile_reads       59119185                       # number of integer regfile reads
system.switch_cpus00.int_regfile_writes      16324042                       # number of integer regfile writes
system.switch_cpus00.misc_regfile_reads      14749527                       # number of misc regfile reads
system.switch_cpus00.misc_regfile_writes         1814                       # number of misc regfile writes
system.switch_cpus01.dtb.inst_hits                  0                       # ITB inst hits
system.switch_cpus01.dtb.inst_misses                0                       # ITB inst misses
system.switch_cpus01.dtb.read_hits                  0                       # DTB read hits
system.switch_cpus01.dtb.read_misses                0                       # DTB read misses
system.switch_cpus01.dtb.write_hits                 0                       # DTB write hits
system.switch_cpus01.dtb.write_misses               0                       # DTB write misses
system.switch_cpus01.dtb.flush_tlb                  0                       # Number of times complete TLB was flushed
system.switch_cpus01.dtb.flush_tlb_mva              0                       # Number of times TLB was flushed by MVA
system.switch_cpus01.dtb.flush_tlb_mva_asid            0                       # Number of times TLB was flushed by MVA & ASID
system.switch_cpus01.dtb.flush_tlb_asid             0                       # Number of times TLB was flushed by ASID
system.switch_cpus01.dtb.flush_entries              0                       # Number of entries that have been flushed from TLB
system.switch_cpus01.dtb.align_faults               0                       # Number of TLB faults due to alignment restrictions
system.switch_cpus01.dtb.prefetch_faults            0                       # Number of TLB faults due to prefetch
system.switch_cpus01.dtb.domain_faults              0                       # Number of TLB faults due to domain restrictions
system.switch_cpus01.dtb.perms_faults               0                       # Number of TLB faults due to permissions restrictions
system.switch_cpus01.dtb.read_accesses              0                       # DTB read accesses
system.switch_cpus01.dtb.write_accesses             0                       # DTB write accesses
system.switch_cpus01.dtb.inst_accesses              0                       # ITB inst accesses
system.switch_cpus01.dtb.hits                       0                       # DTB hits
[...]
system.cpu15.icache.demand_avg_miss_latency::total 1719228.680851                       # average overall miss latency
system.cpu15.icache.overall_avg_miss_latency::switch_cpus15.inst 1719228.680851                       # average overall miss latency
system.cpu15.icache.overall_avg_miss_latency::total 1719228.680851                       # average overall miss latency
system.cpu15.icache.blocked_cycles::no_mshrs            0                       # number of cycles access was blocked
system.cpu15.icache.blocked_cycles::no_targets            0                       # number of cycles access was blocked
system.cpu15.icache.blocked::no_mshrs               0                       # number of cycles access was blocked
system.cpu15.icache.blocked::no_targets             0                       # number of cycles access was blocked
system.cpu15.icache.avg_blocked_cycles::no_mshrs          nan                       # average number of cycles each access was blocked
system.cpu15.icache.avg_blocked_cycles::no_targets          nan                       # average number of cycles each access was blocked
system.cpu15.icache.fast_writes                     0                       # number of fast writes performed
system.cpu15.icache.cache_copies                    0                       # number of cache copies performed
system.cpu15.icache.ReadReq_mshr_hits::switch_cpus15.inst           14                       # number of ReadReq MSHR hits
system.cpu15.icache.ReadReq_mshr_hits::total           14                       # number of ReadReq MSHR hits
system.cpu15.icache.demand_mshr_hits::switch_cpus15.inst           14                       # number of demand (read+write) MSHR hits
system.cpu15.icache.demand_mshr_hits::total           14                       # number of demand (read+write) MSHR hits
system.cpu15.icache.overall_mshr_hits::switch_cpus15.inst           14                       # number of overall MSHR hits
system.cpu15.icache.overall_mshr_hits::total           14                       # number of overall MSHR hits
system.cpu15.icache.ReadReq_mshr_misses::switch_cpus15.inst           33                       # number of ReadReq MSHR misses
system.cpu15.icache.ReadReq_mshr_misses::total           33                       # number of ReadReq MSHR misses
system.cpu15.icache.demand_mshr_misses::switch_cpus15.inst           33                       # number of demand (read+write) MSHR misses
system.cpu15.icache.demand_mshr_misses::total           33                       # number of demand (read+write) MSHR misses
system.cpu15.icache.overall_mshr_misses::switch_cpus15.inst           33                       # number of overall MSHR misses
system.cpu15.icache.overall_mshr_misses::total           33                       # number of overall MSHR misses
system.cpu15.icache.ReadReq_mshr_miss_latency::switch_cpus15.inst     57496326                       # number of ReadReq MSHR miss cycles
system.cpu15.icache.ReadReq_mshr_miss_latency::total     57496326                       # number of ReadReq MSHR miss cycles
system.cpu15.icache.demand_mshr_miss_latency::switch_cpus15.inst     57496326                       # number of demand (read+write) MSHR miss cycles
system.cpu15.icache.demand_mshr_miss_latency::total     57496326                       # number of demand (read+write) MSHR miss cycles
system.cpu15.icache.overall_mshr_miss_latency::switch_cpus15.inst     57496326                       # number of overall MSHR miss cycles
system.cpu15.icache.overall_mshr_miss_latency::total     57496326                       # number of overall MSHR miss cycles
system.cpu15.icache.ReadReq_mshr_miss_rate::switch_cpus15.inst     0.000025                       # mshr miss rate for ReadReq accesses
system.cpu15.icache.ReadReq_mshr_miss_rate::total     0.000025                       # mshr miss rate for ReadReq accesses
system.cpu15.icache.demand_mshr_miss_rate::switch_cpus15.inst     0.000025                       # mshr miss rate for demand accesses
system.cpu15.icache.demand_mshr_miss_rate::total     0.000025                       # mshr miss rate for demand accesses
system.cpu15.icache.overall_mshr_miss_rate::switch_cpus15.inst     0.000025                       # mshr miss rate for overall accesses
system.cpu15.icache.overall_mshr_miss_rate::total     0.000025                       # mshr miss rate for overall accesses
system.cpu15.icache.ReadReq_avg_mshr_miss_latency::switch_cpus15.inst 1742312.909091                       # average ReadReq mshr miss latency
system.cpu15.icache.ReadReq_avg_mshr_miss_latency::total 1742312.909091                       # average ReadReq mshr miss latency
system.cpu15.icache.demand_avg_mshr_miss_latency::switch_cpus15.inst 1742312.909091                       # average overall mshr miss latency
system.cpu15.icache.demand_avg_mshr_miss_latency::total 1742312.909091                       # average overall mshr miss latency
system.cpu15.icache.overall_avg_mshr_miss_latency::switch_cpus15.inst 1742312.909091                       # average overall mshr miss latency
system.cpu15.icache.overall_avg_mshr_miss_latency::total 1742312.909091                       # average overall mshr miss latency
system.cpu15.icache.no_allocate_misses              0                       # Number of misses that were no-allocate
system.cpu15.dcache.replacements                 8823                       # number of replacements
system.cpu15.dcache.tagsinuse                     256                       # Cycle average of tags in use
system.cpu15.dcache.total_refs              440465066                       # Total number of references to valid blocks.
system.cpu15.dcache.sampled_refs                 9079                       # Sample count of references to valid blocks.
system.cpu15.dcache.avg_refs             48514.711532                       # Average number of references to valid blocks.
system.cpu15.dcache.warmup_cycle                    0                       # Cycle when the warmup percentage was hit.
system.cpu15.dcache.occ_blocks::switch_cpus15.data   111.133489                       # Average occupied blocks per requestor
system.cpu15.dcache.occ_blocks::cpu15.data   144.866511                       # Average occupied blocks per requestor
system.cpu15.dcache.occ_percent::switch_cpus15.data     0.434115                       # Average percentage of cache occupancy
system.cpu15.dcache.occ_percent::cpu15.data     0.565885                       # Average percentage of cache occupancy
system.cpu15.dcache.occ_percent::total              1                       # Average percentage of cache occupancy
system.cpu15.dcache.ReadReq_hits::switch_cpus15.data      3397929                       # number of ReadReq hits
system.cpu15.dcache.ReadReq_hits::total       3397929                       # number of ReadReq hits
system.cpu15.dcache.WriteReq_hits::switch_cpus15.data      1859912                       # number of WriteReq hits
system.cpu15.dcache.WriteReq_hits::total      1859912                       # number of WriteReq hits
system.cpu15.dcache.LoadLockedReq_hits::switch_cpus15.data          911                       # number of LoadLockedReq hits
system.cpu15.dcache.LoadLockedReq_hits::total          911                       # number of LoadLockedReq hits
system.cpu15.dcache.StoreCondReq_hits::switch_cpus15.data          908                       # number of StoreCondReq hits
system.cpu15.dcache.StoreCondReq_hits::total          908                       # number of StoreCondReq hits
system.cpu15.dcache.demand_hits::switch_cpus15.data      5257841                       # number of demand (read+write) hits
system.cpu15.dcache.demand_hits::total        5257841                       # number of demand (read+write) hits
system.cpu15.dcache.overall_hits::switch_cpus15.data      5257841                       # number of overall hits
system.cpu15.dcache.overall_hits::total       5257841                       # number of overall hits
system.cpu15.dcache.ReadReq_misses::switch_cpus15.data        32161                       # number of ReadReq misses
system.cpu15.dcache.ReadReq_misses::total        32161                       # number of ReadReq misses
system.cpu15.dcache.WriteReq_misses::switch_cpus15.data           38                       # number of WriteReq misses
system.cpu15.dcache.WriteReq_misses::total           38                       # number of WriteReq misses
system.cpu15.dcache.demand_misses::switch_cpus15.data        32199                       # number of demand (read+write) misses
system.cpu15.dcache.demand_misses::total        32199                       # number of demand (read+write) misses
system.cpu15.dcache.overall_misses::switch_cpus15.data        32199                       # number of overall misses
system.cpu15.dcache.overall_misses::total        32199                       # number of overall misses
system.cpu15.dcache.ReadReq_miss_latency::switch_cpus15.data  15869805915                       # number of ReadReq miss cycles
system.cpu15.dcache.ReadReq_miss_latency::total  15869805915                       # number of ReadReq miss cycles
system.cpu15.dcache.WriteReq_miss_latency::switch_cpus15.data     28021329                       # number of WriteReq miss cycles
system.cpu15.dcache.WriteReq_miss_latency::total     28021329                       # number of WriteReq miss cycles
system.cpu15.dcache.demand_miss_latency::switch_cpus15.data  15897827244                       # number of demand (read+write) miss cycles
system.cpu15.dcache.demand_miss_latency::total  15897827244                       # number of demand (read+write) miss cycles
system.cpu15.dcache.overall_miss_latency::switch_cpus15.data  15897827244                       # number of overall miss cycles
system.cpu15.dcache.overall_miss_latency::total  15897827244                       # number of overall miss cycles
system.cpu15.dcache.ReadReq_accesses::switch_cpus15.data      3430090                       # number of ReadReq accesses(hits+misses)
system.cpu15.dcache.ReadReq_accesses::total      3430090                       # number of ReadReq accesses(hits+misses)
system.cpu15.dcache.WriteReq_accesses::switch_cpus15.data      1859950                       # number of WriteReq accesses(hits+misses)
system.cpu15.dcache.WriteReq_accesses::total      1859950                       # number of WriteReq accesses(hits+misses)
system.cpu15.dcache.LoadLockedReq_accesses::switch_cpus15.data          911                       # number of LoadLockedReq accesses(hits+misses)
system.cpu15.dcache.LoadLockedReq_accesses::total          911                       # number of LoadLockedReq accesses(hits+misses)
system.cpu15.dcache.StoreCondReq_accesses::switch_cpus15.data          908                       # number of StoreCondReq accesses(hits+misses)
system.cpu15.dcache.StoreCondReq_accesses::total          908                       # number of StoreCondReq accesses(hits+misses)
system.cpu15.dcache.demand_accesses::switch_cpus15.data      5290040                       # number of demand (read+write) accesses
system.cpu15.dcache.demand_accesses::total      5290040                       # number of demand (read+write) accesses
system.cpu15.dcache.overall_accesses::switch_cpus15.data      5290040                       # number of overall (read+write) accesses
system.cpu15.dcache.overall_accesses::total      5290040                       # number of overall (read+write) accesses
system.cpu15.dcache.ReadReq_miss_rate::switch_cpus15.data     0.009376                       # miss rate for ReadReq accesses
system.cpu15.dcache.ReadReq_miss_rate::total     0.009376                       # miss rate for ReadReq accesses
system.cpu15.dcache.WriteReq_miss_rate::switch_cpus15.data     0.000020                       # miss rate for WriteReq accesses
system.cpu15.dcache.WriteReq_miss_rate::total     0.000020                       # miss rate for WriteReq accesses
system.cpu15.dcache.demand_miss_rate::switch_cpus15.data     0.006087                       # miss rate for demand accesses
system.cpu15.dcache.demand_miss_rate::total     0.006087                       # miss rate for demand accesses
system.cpu15.dcache.overall_miss_rate::switch_cpus15.data     0.006087                       # miss rate for overall accesses
system.cpu15.dcache.overall_miss_rate::total     0.006087                       # miss rate for overall accesses
system.cpu15.dcache.ReadReq_avg_miss_latency::switch_cpus15.data 493448.770716                       # average ReadReq miss latency
system.cpu15.dcache.ReadReq_avg_miss_latency::total 493448.770716                       # average ReadReq miss latency
system.cpu15.dcache.WriteReq_avg_miss_latency::switch_cpus15.data 737403.394737                       # average WriteReq miss latency
system.cpu15.dcache.WriteReq_avg_miss_latency::total 737403.394737                       # average WriteReq miss latency
system.cpu15.dcache.demand_avg_miss_latency::switch_cpus15.data 493736.676419                       # average overall miss latency
system.cpu15.dcache.demand_avg_miss_latency::total 493736.676419                       # average overall miss latency
system.cpu15.dcache.overall_avg_miss_latency::switch_cpus15.data 493736.676419                       # average overall miss latency
system.cpu15.dcache.overall_avg_miss_latency::total 493736.676419                       # average overall miss latency
system.cpu15.dcache.blocked_cycles::no_mshrs            0                       # number of cycles access was blocked
system.cpu15.dcache.blocked_cycles::no_targets            0                       # number of cycles access was blocked
system.cpu15.dcache.blocked::no_mshrs               0                       # number of cycles access was blocked
system.cpu15.dcache.blocked::no_targets             0                       # number of cycles access was blocked
system.cpu15.dcache.avg_blocked_cycles::no_mshrs          nan                       # average number of cycles each access was blocked
system.cpu15.dcache.avg_blocked_cycles::no_targets          nan                       # average number of cycles each access was blocked
system.cpu15.dcache.fast_writes                     0                       # number of fast writes performed
system.cpu15.dcache.cache_copies                    0                       # number of cache copies performed
system.cpu15.dcache.writebacks::writebacks         1546                       # number of writebacks
system.cpu15.dcache.writebacks::total            1546                       # number of writebacks
system.cpu15.dcache.ReadReq_mshr_hits::switch_cpus15.data        23347                       # number of ReadReq MSHR hits
system.cpu15.dcache.ReadReq_mshr_hits::total        23347                       # number of ReadReq MSHR hits
system.cpu15.dcache.WriteReq_mshr_hits::switch_cpus15.data           29                       # number of WriteReq MSHR hits
system.cpu15.dcache.WriteReq_mshr_hits::total           29                       # number of WriteReq MSHR hits
system.cpu15.dcache.demand_mshr_hits::switch_cpus15.data        23376                       # number of demand (read+write) MSHR hits
system.cpu15.dcache.demand_mshr_hits::total        23376                       # number of demand (read+write) MSHR hits
system.cpu15.dcache.overall_mshr_hits::switch_cpus15.data        23376                       # number of overall MSHR hits
system.cpu15.dcache.overall_mshr_hits::total        23376                       # number of overall MSHR hits
system.cpu15.dcache.ReadReq_mshr_misses::switch_cpus15.data         8814                       # number of ReadReq MSHR misses
system.cpu15.dcache.ReadReq_mshr_misses::total         8814                       # number of ReadReq MSHR misses
system.cpu15.dcache.WriteReq_mshr_misses::switch_cpus15.data            9                       # number of WriteReq MSHR misses
system.cpu15.dcache.WriteReq_mshr_misses::total            9                       # number of WriteReq MSHR misses
system.cpu15.dcache.demand_mshr_misses::switch_cpus15.data         8823                       # number of demand (read+write) MSHR misses
system.cpu15.dcache.demand_mshr_misses::total         8823                       # number of demand (read+write) MSHR misses
system.cpu15.dcache.overall_mshr_misses::switch_cpus15.data         8823                       # number of overall MSHR misses
system.cpu15.dcache.overall_mshr_misses::total         8823                       # number of overall MSHR misses
system.cpu15.dcache.ReadReq_mshr_miss_latency::switch_cpus15.data   4215549906                       # number of ReadReq MSHR miss cycles
system.cpu15.dcache.ReadReq_mshr_miss_latency::total   4215549906                       # number of ReadReq MSHR miss cycles
system.cpu15.dcache.WriteReq_mshr_miss_latency::switch_cpus15.data      8360015                       # number of WriteReq MSHR miss cycles
system.cpu15.dcache.WriteReq_mshr_miss_latency::total      8360015                       # number of WriteReq MSHR miss cycles
system.cpu15.dcache.demand_mshr_miss_latency::switch_cpus15.data   4223909921                       # number of demand (read+write) MSHR miss cycles
system.cpu15.dcache.demand_mshr_miss_latency::total   4223909921                       # number of demand (read+write) MSHR miss cycles
system.cpu15.dcache.overall_mshr_miss_latency::switch_cpus15.data   4223909921                       # number of overall MSHR miss cycles
system.cpu15.dcache.overall_mshr_miss_latency::total   4223909921                       # number of overall MSHR miss cycles
system.cpu15.dcache.ReadReq_mshr_miss_rate::switch_cpus15.data     0.002570                       # mshr miss rate for ReadReq accesses
system.cpu15.dcache.ReadReq_mshr_miss_rate::total     0.002570                       # mshr miss rate for ReadReq accesses
system.cpu15.dcache.WriteReq_mshr_miss_rate::switch_cpus15.data     0.000005                       # mshr miss rate for WriteReq accesses
system.cpu15.dcache.WriteReq_mshr_miss_rate::total     0.000005                       # mshr miss rate for WriteReq accesses
system.cpu15.dcache.demand_mshr_miss_rate::switch_cpus15.data     0.001668                       # mshr miss rate for demand accesses
system.cpu15.dcache.demand_mshr_miss_rate::total     0.001668                       # mshr miss rate for demand accesses
system.cpu15.dcache.overall_mshr_miss_rate::switch_cpus15.data     0.001668                       # mshr miss rate for overall accesses
system.cpu15.dcache.overall_mshr_miss_rate::total     0.001668                       # mshr miss rate for overall accesses
system.cpu15.dcache.ReadReq_avg_mshr_miss_latency::switch_cpus15.data 478278.863853                       # average ReadReq mshr miss latency
system.cpu15.dcache.ReadReq_avg_mshr_miss_latency::total 478278.863853                       # average ReadReq mshr miss latency
system.cpu15.dcache.WriteReq_avg_mshr_miss_latency::switch_cpus15.data 928890.555556                       # average WriteReq mshr miss latency
system.cpu15.dcache.WriteReq_avg_mshr_miss_latency::total 928890.555556                       # average WriteReq mshr miss latency
system.cpu15.dcache.demand_avg_mshr_miss_latency::switch_cpus15.data 478738.515358                       # average overall mshr miss latency
system.cpu15.dcache.demand_avg_mshr_miss_latency::total 478738.515358                       # average overall mshr miss latency
system.cpu15.dcache.overall_avg_mshr_miss_latency::switch_cpus15.data 478738.515358                       # average overall mshr miss latency
system.cpu15.dcache.overall_avg_mshr_miss_latency::total 478738.515358                       # average overall mshr miss latency
system.cpu15.dcache.no_allocate_misses              0                       # Number of misses that were no-allocate

---------- End Simulation Statistics   ----------
