
---------- Begin Simulation Statistics ----------
sim_seconds                                  0.037502                       # Number of seconds simulated
sim_ticks                                 37501910463                       # Number of ticks simulated
final_tick                               567066290400                       # Number of ticks from beginning of simulation (restored from checkpoints and never reset)
sim_freq                                 1000000000000                       # Frequency of simulated ticks
host_inst_rate                                 259645                       # Simulator instruction rate (inst/s)
host_op_rate                                   333956                       # Simulator op (including micro ops) rate (op/s)
host_tick_rate                                2245370                       # Simulator tick rate (ticks/s)
host_mem_usage                               16930352                       # Number of bytes of host memory used
host_seconds                                 16701.88                       # Real time elapsed on the host
sim_insts                                  4336559327                       # Number of instructions simulated
sim_ops                                    5577701084                       # Number of ops (including micro ops) simulated
system.physmem.bytes_read::switch_cpus0.inst         1408                       # Number of bytes read from this memory
system.physmem.bytes_read::switch_cpus0.data      3030016                       # Number of bytes read from this memory
system.physmem.bytes_read::switch_cpus1.inst         1920                       # Number of bytes read from this memory
system.physmem.bytes_read::switch_cpus1.data      2379776                       # Number of bytes read from this memory
system.physmem.bytes_read::switch_cpus2.inst         1664                       # Number of bytes read from this memory
system.physmem.bytes_read::switch_cpus2.data      3202048                       # Number of bytes read from this memory
system.physmem.bytes_read::switch_cpus3.inst         2176                       # Number of bytes read from this memory
system.physmem.bytes_read::switch_cpus3.data       789376                       # Number of bytes read from this memory
system.physmem.bytes_read::total              9408384                       # Number of bytes read from this memory
system.physmem.bytes_inst_read::switch_cpus0.inst         1408                       # Number of instructions bytes read from this memory
system.physmem.bytes_inst_read::switch_cpus1.inst         1920                       # Number of instructions bytes read from this memory
system.physmem.bytes_inst_read::switch_cpus2.inst         1664                       # Number of instructions bytes read from this memory
system.physmem.bytes_inst_read::switch_cpus3.inst         2176                       # Number of instructions bytes read from this memory
system.physmem.bytes_inst_read::total            7168                       # Number of instructions bytes read from this memory
system.physmem.bytes_written::writebacks      2000768                       # Number of bytes written to this memory
system.physmem.bytes_written::total           2000768                       # Number of bytes written to this memory
system.physmem.num_reads::switch_cpus0.inst           11                       # Number of read requests responded to by this memory
system.physmem.num_reads::switch_cpus0.data        23672                       # Number of read requests responded to by this memory
system.physmem.num_reads::switch_cpus1.inst           15                       # Number of read requests responded to by this memory
system.physmem.num_reads::switch_cpus1.data        18592                       # Number of read requests responded to by this memory
system.physmem.num_reads::switch_cpus2.inst           13                       # Number of read requests responded to by this memory
system.physmem.num_reads::switch_cpus2.data        25016                       # Number of read requests responded to by this memory
system.physmem.num_reads::switch_cpus3.inst           17                       # Number of read requests responded to by this memory
system.physmem.num_reads::switch_cpus3.data         6167                       # Number of read requests responded to by this memory
system.physmem.num_reads::total                 73503                       # Number of read requests responded to by this memory
system.physmem.num_writes::writebacks           15631                       # Number of write requests responded to by this memory
system.physmem.num_writes::functional               0                       # Number of write requests responded to by this memory
system.physmem.num_writes::interrupt                0                       # Number of write requests responded to by this memory
system.physmem.num_writes::switch_cpus0.dtb.walker            0                       # Number of write requests responded to by this memory
system.physmem.num_writes::switch_cpus0.itb.walker            0                       # Number of write requests responded to by this memory
system.physmem.num_writes::switch_cpus0.inst            0                       # Number of write requests responded to by this memory
system.physmem.num_writes::switch_cpus0.data            0                       # Number of write requests responded to by this memory
system.physmem.num_writes::switch_cpus1.dtb.walker            0                       # Number of write requests responded to by this memory
system.physmem.num_writes::switch_cpus1.itb.walker            0                       # Number of write requests responded to by this memory
system.physmem.num_writes::switch_cpus1.inst            0                       # Number of write requests responded to by this memory
system.physmem.num_writes::switch_cpus1.data            0                       # Number of write requests responded to by this memory
system.physmem.num_writes::switch_cpus2.dtb.walker            0                       # Number of write requests responded to by this memory
system.physmem.num_writes::switch_cpus2.itb.walker            0                       # Number of write requests responded to by this memory
system.physmem.num_writes::switch_cpus2.inst            0                       # Number of write requests responded to by this memory
system.physmem.num_writes::switch_cpus2.data            0                       # Number of write requests responded to by this memory
system.physmem.num_writes::switch_cpus3.dtb.walker            0                       # Number of write requests responded to by this memory
system.physmem.num_writes::switch_cpus3.itb.walker            0                       # Number of write requests responded to by this memory
system.physmem.num_writes::switch_cpus3.inst            0                       # Number of write requests responded to by this memory
system.physmem.num_writes::switch_cpus3.data            0                       # Number of write requests responded to by this memory
system.physmem.num_writes::cpu0.dtb.walker            0                       # Number of write requests responded to by this memory
system.physmem.num_writes::cpu0.itb.walker            0                       # Number of write requests responded to by this memory
system.physmem.num_writes::cpu0.inst                0                       # Number of write requests responded to by this memory
system.physmem.num_writes::cpu0.data                0                       # Number of write requests responded to by this memory
system.physmem.num_writes::cpu1.dtb.walker            0                       # Number of write requests responded to by this memory
system.physmem.num_writes::cpu1.itb.walker            0                       # Number of write requests responded to by this memory
system.physmem.num_writes::cpu1.inst                0                       # Number of write requests responded to by this memory
system.physmem.num_writes::cpu1.data                0                       # Number of write requests responded to by this memory
system.physmem.num_writes::cpu2.dtb.walker            0                       # Number of write requests responded to by this memory
system.physmem.num_writes::cpu2.itb.walker            0                       # Number of write requests responded to by this memory
system.physmem.num_writes::cpu2.inst                0                       # Number of write requests responded to by this memory
system.physmem.num_writes::cpu2.data                0                       # Number of write requests responded to by this memory
system.physmem.num_writes::cpu3.dtb.walker            0                       # Number of write requests responded to by this memory
system.physmem.num_writes::cpu3.itb.walker            0                       # Number of write requests responded to by this memory
system.physmem.num_writes::cpu3.inst                0                       # Number of write requests responded to by this memory
system.physmem.num_writes::cpu3.data                0                       # Number of write requests responded to by this memory
system.physmem.num_writes::total                15631                       # Number of write requests responded to by this memory
system.physmem.bw_read::switch_cpus0.inst        37545                       # Total read bandwidth from this memory (bytes/s)
system.physmem.bw_read::switch_cpus0.data     80796310                       # Total read bandwidth from this memory (bytes/s)
system.physmem.bw_read::switch_cpus1.inst        51197                       # Total read bandwidth from this memory (bytes/s)
system.physmem.bw_read::switch_cpus1.data     63457460                       # Total read bandwidth from this memory (bytes/s)
system.physmem.bw_read::switch_cpus2.inst        44371                       # Total read bandwidth from this memory (bytes/s)
system.physmem.bw_read::switch_cpus2.data     85383597                       # Total read bandwidth from this memory (bytes/s)
system.physmem.bw_read::switch_cpus3.inst        58024                       # Total read bandwidth from this memory (bytes/s)
system.physmem.bw_read::switch_cpus3.data     21048954                       # Total read bandwidth from this memory (bytes/s)
system.physmem.bw_read::total               250877459                       # Total read bandwidth from this memory (bytes/s)
system.physmem.bw_inst_read::switch_cpus0.inst        37545                       # Instruction read bandwidth from this memory (bytes/s)
system.physmem.bw_inst_read::switch_cpus1.inst        51197                       # Instruction read bandwidth from this memory (bytes/s)
system.physmem.bw_inst_read::switch_cpus2.inst        44371                       # Instruction read bandwidth from this memory (bytes/s)
system.physmem.bw_inst_read::switch_cpus3.inst        58024                       # Instruction read bandwidth from this memory (bytes/s)
system.physmem.bw_inst_read::total             191137                       # Instruction read bandwidth from this memory (bytes/s)
system.physmem.bw_write::writebacks          53351095                       # Write bandwidth from this memory (bytes/s)
system.physmem.bw_write::total               53351095                       # Write bandwidth from this memory (bytes/s)
system.physmem.bw_total::writebacks          53351095                       # Total bandwidth to/from this memory (bytes/s)
system.physmem.bw_total::switch_cpus0.inst        37545                       # Total bandwidth to/from this memory (bytes/s)
system.physmem.bw_total::switch_cpus0.data     80796310                       # Total bandwidth to/from this memory (bytes/s)
system.physmem.bw_total::switch_cpus1.inst        51197                       # Total bandwidth to/from this memory (bytes/s)
system.physmem.bw_total::switch_cpus1.data     63457460                       # Total bandwidth to/from this memory (bytes/s)
system.physmem.bw_total::switch_cpus2.inst        44371                       # Total bandwidth to/from this memory (bytes/s)
system.physmem.bw_total::switch_cpus2.data     85383597                       # Total bandwidth to/from this memory (bytes/s)
system.physmem.bw_total::switch_cpus3.inst        58024                       # Total bandwidth to/from this memory (bytes/s)
system.physmem.bw_total::switch_cpus3.data     21048954                       # Total bandwidth to/from this memory (bytes/s)
system.physmem.bw_total::total              304228554                       # Total bandwidth to/from this memory (bytes/s)
system.switch_cpus0.dtb.inst_hits                   0                       # ITB inst hits
system.switch_cpus0.dtb.inst_misses                 0                       # ITB inst misses
system.switch_cpus0.dtb.read_hits                   0                       # DTB read hits
system.switch_cpus0.dtb.read_misses                 0                       # DTB read misses
system.switch_cpus0.dtb.write_hits                  0                       # DTB write hits
system.switch_cpus0.dtb.write_misses                0                       # DTB write misses
system.switch_cpus0.dtb.flush_tlb                   0                       # Number of times complete TLB was flushed
system.switch_cpus0.dtb.flush_tlb_mva               0                       # Number of times TLB was flushed by MVA
system.switch_cpus0.dtb.flush_tlb_mva_asid            0                       # Number of times TLB was flushed by MVA & ASID
system.switch_cpus0.dtb.flush_tlb_asid              0                       # Number of times TLB was flushed by ASID
system.switch_cpus0.dtb.flush_entries               0                       # Number of entries that have been flushed from TLB
system.switch_cpus0.dtb.align_faults                0                       # Number of TLB faults due to alignment restrictions
system.switch_cpus0.dtb.prefetch_faults             0                       # Number of TLB faults due to prefetch
system.switch_cpus0.dtb.domain_faults               0                       # Number of TLB faults due to domain restrictions
system.switch_cpus0.dtb.perms_faults                0                       # Number of TLB faults due to permissions restrictions
system.switch_cpus0.dtb.read_accesses               0                       # DTB read accesses
system.switch_cpus0.dtb.write_accesses              0                       # DTB write accesses
system.switch_cpus0.dtb.inst_accesses               0                       # ITB inst accesses
system.switch_cpus0.dtb.hits                        0                       # DTB hits
system.switch_cpus0.dtb.misses                      0                       # DTB misses
system.switch_cpus0.dtb.accesses                    0                       # DTB accesses
system.switch_cpus0.itb.inst_hits                   0                       # ITB inst hits
system.switch_cpus0.itb.inst_misses                 0                       # ITB inst misses
system.switch_cpus0.itb.read_hits                   0                       # DTB read hits
system.switch_cpus0.itb.read_misses                 0                       # DTB read misses
system.switch_cpus0.itb.write_hits                  0                       # DTB write hits
system.switch_cpus0.itb.write_misses                0                       # DTB write misses
system.switch_cpus0.itb.flush_tlb                   0                       # Number of times complete TLB was flushed
system.switch_cpus0.itb.flush_tlb_mva               0                       # Number of times TLB was flushed by MVA
system.switch_cpus0.itb.flush_tlb_mva_asid            0                       # Number of times TLB was flushed by MVA & ASID
system.switch_cpus0.itb.flush_tlb_asid              0                       # Number of times TLB was flushed by ASID
system.switch_cpus0.itb.flush_entries               0                       # Number of entries that have been flushed from TLB
system.switch_cpus0.itb.align_faults                0                       # Number of TLB faults due to alignment restrictions
system.switch_cpus0.itb.prefetch_faults             0                       # Number of TLB faults due to prefetch
system.switch_cpus0.itb.domain_faults               0                       # Number of TLB faults due to domain restrictions
system.switch_cpus0.itb.perms_faults                0                       # Number of TLB faults due to permissions restrictions
system.switch_cpus0.itb.read_accesses               0                       # DTB read accesses
system.switch_cpus0.itb.write_accesses              0                       # DTB write accesses
system.switch_cpus0.itb.inst_accesses               0                       # ITB inst accesses
system.switch_cpus0.itb.hits                        0                       # DTB hits
system.switch_cpus0.itb.misses                      0                       # DTB misses
system.switch_cpus0.itb.accesses                    0                       # DTB accesses
system.cpu0.workload.num_syscalls                   0                       # Number of system calls
system.switch_cpus0.numCycles                89932640                       # number of cpu cycles simulated
system.switch_cpus0.numWorkItemsStarted             0                       # number of work items this cpu started
system.switch_cpus0.numWorkItemsCompleted            0                       # number of work items this cpu completed
system.switch_cpus0.BPredUnit.lookups        31028766                       # Number of BP lookups
system.switch_cpus0.BPredUnit.condPredicted     25454785                       # Number of conditional branches predicted
system.switch_cpus0.BPredUnit.condIncorrect      2019393                       # Number of conditional branches incorrect
system.switch_cpus0.BPredUnit.BTBLookups     12993315                       # Number of BTB lookups
system.switch_cpus0.BPredUnit.BTBHits        12088749                       # Number of BTB hits
system.switch_cpus0.BPredUnit.BTBCorrect            0                       # Number of correct BTB predictions (this stat may not work properly.
system.switch_cpus0.BPredUnit.usedRAS         3157236                       # Number of times the RAS was used to get a target.
system.switch_cpus0.BPredUnit.RASInCorrect        86815                       # Number of incorrect RAS predictions.
system.switch_cpus0.fetch.icacheStallCycles     32035357                       # Number of cycles fetch is stalled on an Icache miss
system.switch_cpus0.fetch.Insts             170430438                       # Number of instructions fetch has processed
system.switch_cpus0.fetch.Branches           31028766                       # Number of branches that fetch encountered
system.switch_cpus0.fetch.predictedBranches     15245985                       # Number of branches that fetch has predicted taken
system.switch_cpus0.fetch.Cycles             36615141                       # Number of cycles fetch has run and was not squashing or blocked
system.switch_cpus0.fetch.SquashCycles       10827684                       # Number of cycles fetch has spent squashing
system.switch_cpus0.fetch.BlockedCycles       8683002                       # Number of cycles fetch has spent blocked
system.switch_cpus0.fetch.PendingTrapStallCycles            1                       # Number of stall cycles due to pending traps
system.switch_cpus0.fetch.CacheLines         15669532                       # Number of cache lines fetched
system.switch_cpus0.fetch.IcacheSquashes       805544                       # Number of outstanding Icache misses that were squashed
system.switch_cpus0.fetch.rateDist::samples     86109808                       # Number of instructions fetched each cycle (Total)
system.switch_cpus0.fetch.rateDist::mean     2.432131                       # Number of instructions fetched each cycle (Total)
system.switch_cpus0.fetch.rateDist::stdev     3.317321                       # Number of instructions fetched each cycle (Total)
system.switch_cpus0.fetch.rateDist::underflows            0      0.00%      0.00% # Number of instructions fetched each cycle (Total)
system.switch_cpus0.fetch.rateDist::0        49494667     57.48%     57.48% # Number of instructions fetched each cycle (Total)
system.switch_cpus0.fetch.rateDist::1         3660829      4.25%     61.73% # Number of instructions fetched each cycle (Total)
system.switch_cpus0.fetch.rateDist::2         3195969      3.71%     65.44% # Number of instructions fetched each cycle (Total)
system.switch_cpus0.fetch.rateDist::3         3442941      4.00%     69.44% # Number of instructions fetched each cycle (Total)
system.switch_cpus0.fetch.rateDist::4         3000474      3.48%     72.92% # Number of instructions fetched each cycle (Total)
system.switch_cpus0.fetch.rateDist::5         1568464      1.82%     74.75% # Number of instructions fetched each cycle (Total)
system.switch_cpus0.fetch.rateDist::6         1025897      1.19%     75.94% # Number of instructions fetched each cycle (Total)
system.switch_cpus0.fetch.rateDist::7         2715422      3.15%     79.09% # Number of instructions fetched each cycle (Total)
system.switch_cpus0.fetch.rateDist::8        18005145     20.91%    100.00% # Number of instructions fetched each cycle (Total)
system.switch_cpus0.fetch.rateDist::overflows            0      0.00%    100.00% # Number of instructions fetched each cycle (Total)
system.switch_cpus0.fetch.rateDist::min_value            0                       # Number of instructions fetched each cycle (Total)
system.switch_cpus0.fetch.rateDist::max_value            8                       # Number of instructions fetched each cycle (Total)
system.switch_cpus0.fetch.rateDist::total     86109808                       # Number of instructions fetched each cycle (Total)
system.switch_cpus0.fetch.branchRate         0.345022                       # Number of branch fetches per cycle
system.switch_cpus0.fetch.rate               1.895090                       # Number of inst fetches per cycle
system.switch_cpus0.decode.IdleCycles        33704208                       # Number of cycles decode is idle
system.switch_cpus0.decode.BlockedCycles      8260832                       # Number of cycles decode is blocked
system.switch_cpus0.decode.RunCycles         34825159                       # Number of cycles decode is running
system.switch_cpus0.decode.UnblockCycles       549753                       # Number of cycles decode is unblocking
system.switch_cpus0.decode.SquashCycles       8769847                       # Number of cycles decode is squashing
system.switch_cpus0.decode.BranchResolved      5080620                       # Number of times decode resolved a branch
system.switch_cpus0.decode.BranchMispred         6629                       # Number of times decode detected a branch misprediction
system.switch_cpus0.decode.DecodedInsts     202105524                       # Number of instructions handled by decode
system.switch_cpus0.decode.SquashedInsts        51129                       # Number of squashed instructions handled by decode
system.switch_cpus0.rename.SquashCycles       8769847                       # Number of cycles rename is squashing
system.switch_cpus0.rename.IdleCycles        35379222                       # Number of cycles rename is idle
system.switch_cpus0.rename.BlockCycles        4463385                       # Number of cycles rename is blocking
system.switch_cpus0.rename.serializeStallCycles      1070330                       # count of cycles rename stalled for serializing inst
system.switch_cpus0.rename.RunCycles         33665478                       # Number of cycles rename is running
system.switch_cpus0.rename.UnblockCycles      2761538                       # Number of cycles rename is unblocking
system.switch_cpus0.rename.RenamedInsts     195241571                       # Number of instructions processed by rename
system.switch_cpus0.rename.ROBFullEvents        11998                       # Number of times rename has blocked due to ROB full
system.switch_cpus0.rename.IQFullEvents       1734849                       # Number of times rename has blocked due to IQ full
system.switch_cpus0.rename.LSQFullEvents       750005                       # Number of times rename has blocked due to LSQ full
system.switch_cpus0.rename.FullRegisterEvents          126                       # Number of times there has been no free registers
system.switch_cpus0.rename.RenamedOperands    271247537                       # Number of destination operands rename has renamed
system.switch_cpus0.rename.RenameLookups    910364379                       # Number of register rename lookups that rename has made
system.switch_cpus0.rename.int_rename_lookups    910364379                       # Number of integer rename lookups
system.switch_cpus0.rename.CommittedMaps    168259218                       # Number of HB maps that are committed
system.switch_cpus0.rename.UndoneMaps       102988273                       # Number of HB maps that are undone due to squashing
system.switch_cpus0.rename.serializingInsts        33622                       # count of serializing insts renamed
system.switch_cpus0.rename.tempSerializingInsts        17572                       # count of temporary serializing insts renamed
system.switch_cpus0.rename.skidInsts          7304266                       # count of insts added to the skid buffer
system.switch_cpus0.memDep0.insertedLoads     19241259                       # Number of loads inserted to the mem dependence unit.
system.switch_cpus0.memDep0.insertedStores     10030734                       # Number of stores inserted to the mem dependence unit.
system.switch_cpus0.memDep0.conflictingLoads       242106                       # Number of conflicting loads.
system.switch_cpus0.memDep0.conflictingStores      3190242                       # Number of conflicting stores.
system.switch_cpus0.iq.iqInstsAdded         184070148                       # Number of instructions added to the IQ (excludes non-spec)
system.switch_cpus0.iq.iqNonSpecInstsAdded        33573                       # Number of non-speculative instructions added to the IQ
system.switch_cpus0.iq.iqInstsIssued        147821659                       # Number of instructions issued
system.switch_cpus0.iq.iqSquashedInstsIssued       288231                       # Number of squashed instructions issued
system.switch_cpus0.iq.iqSquashedInstsExamined     61158652                       # Number of squashed instructions iterated over during squash; mainly for profiling
system.switch_cpus0.iq.iqSquashedOperandsExamined    186957762                       # Number of squashed operands that are examined and possibly removed from graph
system.switch_cpus0.iq.iqSquashedNonSpecRemoved         1529                       # Number of squashed non-spec instructions that were removed
system.switch_cpus0.iq.issued_per_cycle::samples     86109808                       # Number of insts issued each cycle
system.switch_cpus0.iq.issued_per_cycle::mean     1.716665                       # Number of insts issued each cycle
system.switch_cpus0.iq.issued_per_cycle::stdev     1.904446                       # Number of insts issued each cycle
system.switch_cpus0.iq.issued_per_cycle::underflows            0      0.00%      0.00% # Number of insts issued each cycle
system.switch_cpus0.iq.issued_per_cycle::0     31844113     36.98%     36.98% # Number of insts issued each cycle
system.switch_cpus0.iq.issued_per_cycle::1     17892496     20.78%     57.76% # Number of insts issued each cycle
system.switch_cpus0.iq.issued_per_cycle::2     11990320     13.92%     71.68% # Number of insts issued each cycle
system.switch_cpus0.iq.issued_per_cycle::3      7631287      8.86%     80.55% # Number of insts issued each cycle
system.switch_cpus0.iq.issued_per_cycle::4      7536716      8.75%     89.30% # Number of insts issued each cycle
system.switch_cpus0.iq.issued_per_cycle::5      4432831      5.15%     94.45% # Number of insts issued each cycle
system.switch_cpus0.iq.issued_per_cycle::6      3384703      3.93%     98.38% # Number of insts issued each cycle
system.switch_cpus0.iq.issued_per_cycle::7       743311      0.86%     99.24% # Number of insts issued each cycle
system.switch_cpus0.iq.issued_per_cycle::8       654031      0.76%    100.00% # Number of insts issued each cycle
system.switch_cpus0.iq.issued_per_cycle::overflows            0      0.00%    100.00% # Number of insts issued each cycle
system.switch_cpus0.iq.issued_per_cycle::min_value            0                       # Number of insts issued each cycle
system.switch_cpus0.iq.issued_per_cycle::max_value            8                       # Number of insts issued each cycle
system.switch_cpus0.iq.issued_per_cycle::total     86109808                       # Number of insts issued each cycle
system.switch_cpus0.iq.fu_full::No_OpClass            0      0.00%      0.00% # attempts to use FU when none available
system.switch_cpus0.iq.fu_full::IntAlu        1082543     70.13%     70.13% # attempts to use FU when none available
system.switch_cpus0.iq.fu_full::IntMult            42      0.00%     70.13% # attempts to use FU when none available
system.switch_cpus0.iq.fu_full::IntDiv              0      0.00%     70.13% # attempts to use FU when none available
system.switch_cpus0.iq.fu_full::FloatAdd            0      0.00%     70.13% # attempts to use FU when none available
system.switch_cpus0.iq.fu_full::FloatCmp            0      0.00%     70.13% # attempts to use FU when none available
system.switch_cpus0.iq.fu_full::FloatCvt            0      0.00%     70.13% # attempts to use FU when none available
system.switch_cpus0.iq.fu_full::FloatMult            0      0.00%     70.13% # attempts to use FU when none available
system.switch_cpus0.iq.fu_full::FloatDiv            0      0.00%     70.13% # attempts to use FU when none available
system.switch_cpus0.iq.fu_full::FloatSqrt            0      0.00%     70.13% # attempts to use FU when none available
system.switch_cpus0.iq.fu_full::SimdAdd             0      0.00%     70.13% # attempts to use FU when none available
system.switch_cpus0.iq.fu_full::SimdAddAcc            0      0.00%     70.13% # attempts to use FU when none available
system.switch_cpus0.iq.fu_full::SimdAlu             0      0.00%     70.13% # attempts to use FU when none available
system.switch_cpus0.iq.fu_full::SimdCmp             0      0.00%     70.13% # attempts to use FU when none available
system.switch_cpus0.iq.fu_full::SimdCvt             0      0.00%     70.13% # attempts to use FU when none available
system.switch_cpus0.iq.fu_full::SimdMisc            0      0.00%     70.13% # attempts to use FU when none available
system.switch_cpus0.iq.fu_full::SimdMult            0      0.00%     70.13% # attempts to use FU when none available
system.switch_cpus0.iq.fu_full::SimdMultAcc            0      0.00%     70.13% # attempts to use FU when none available
system.switch_cpus0.iq.fu_full::SimdShift            0      0.00%     70.13% # attempts to use FU when none available
system.switch_cpus0.iq.fu_full::SimdShiftAcc            0      0.00%     70.13% # attempts to use FU when none available
system.switch_cpus0.iq.fu_full::SimdSqrt            0      0.00%     70.13% # attempts to use FU when none available
system.switch_cpus0.iq.fu_full::SimdFloatAdd            0      0.00%     70.13% # attempts to use FU when none available
system.switch_cpus0.iq.fu_full::SimdFloatAlu            0      0.00%     70.13% # attempts to use FU when none available
system.switch_cpus0.iq.fu_full::SimdFloatCmp            0      0.00%     70.13% # attempts to use FU when none available
system.switch_cpus0.iq.fu_full::SimdFloatCvt            0      0.00%     70.13% # attempts to use FU when none available
system.switch_cpus0.iq.fu_full::SimdFloatDiv            0      0.00%     70.13% # attempts to use FU when none available
system.switch_cpus0.iq.fu_full::SimdFloatMisc            0      0.00%     70.13% # attempts to use FU when none available
system.switch_cpus0.iq.fu_full::SimdFloatMult            0      0.00%     70.13% # attempts to use FU when none available
system.switch_cpus0.iq.fu_full::SimdFloatMultAcc            0      0.00%     70.13% # attempts to use FU when none available
system.switch_cpus0.iq.fu_full::SimdFloatSqrt            0      0.00%     70.13% # attempts to use FU when none available
system.switch_cpus0.iq.fu_full::MemRead        202561     13.12%     83.25% # attempts to use FU when none available
system.switch_cpus0.iq.fu_full::MemWrite       258501     16.75%    100.00% # attempts to use FU when none available
system.switch_cpus0.iq.fu_full::IprAccess            0      0.00%    100.00% # attempts to use FU when none available
system.switch_cpus0.iq.fu_full::InstPrefetch            0      0.00%    100.00% # attempts to use FU when none available
system.switch_cpus0.iq.FU_type_0::No_OpClass            0      0.00%      0.00% # Type of FU issued
system.switch_cpus0.iq.FU_type_0::IntAlu    121615535     82.27%     82.27% # Type of FU issued
system.switch_cpus0.iq.FU_type_0::IntMult      2017562      1.36%     83.64% # Type of FU issued
system.switch_cpus0.iq.FU_type_0::IntDiv            0      0.00%     83.64% # Type of FU issued
system.switch_cpus0.iq.FU_type_0::FloatAdd            0      0.00%     83.64% # Type of FU issued
system.switch_cpus0.iq.FU_type_0::FloatCmp            0      0.00%     83.64% # Type of FU issued
system.switch_cpus0.iq.FU_type_0::FloatCvt            0      0.00%     83.64% # Type of FU issued
system.switch_cpus0.iq.FU_type_0::FloatMult            0      0.00%     83.64% # Type of FU issued
system.switch_cpus0.iq.FU_type_0::FloatDiv            0      0.00%     83.64% # Type of FU issued
system.switch_cpus0.iq.FU_type_0::FloatSqrt            0      0.00%     83.64% # Type of FU issued
system.switch_cpus0.iq.FU_type_0::SimdAdd            0      0.00%     83.64% # Type of FU issued
system.switch_cpus0.iq.FU_type_0::SimdAddAcc            0      0.00%     83.64% # Type of FU issued
system.switch_cpus0.iq.FU_type_0::SimdAlu            0      0.00%     83.64% # Type of FU issued
system.switch_cpus0.iq.FU_type_0::SimdCmp            0      0.00%     83.64% # Type of FU issued
system.switch_cpus0.iq.FU_type_0::SimdCvt            0      0.00%     83.64% # Type of FU issued
system.switch_cpus0.iq.FU_type_0::SimdMisc            0      0.00%     83.64% # Type of FU issued
system.switch_cpus0.iq.FU_type_0::SimdMult            0      0.00%     83.64% # Type of FU issued
system.switch_cpus0.iq.FU_type_0::SimdMultAcc            0      0.00%     83.64% # Type of FU issued
system.switch_cpus0.iq.FU_type_0::SimdShift            0      0.00%     83.64% # Type of FU issued
system.switch_cpus0.iq.FU_type_0::SimdShiftAcc            0      0.00%     83.64% # Type of FU issued
system.switch_cpus0.iq.FU_type_0::SimdSqrt            0      0.00%     83.64% # Type of FU issued
system.switch_cpus0.iq.FU_type_0::SimdFloatAdd            0      0.00%     83.64% # Type of FU issued
system.switch_cpus0.iq.FU_type_0::SimdFloatAlu            0      0.00%     83.64% # Type of FU issued
system.switch_cpus0.iq.FU_type_0::SimdFloatCmp            0      0.00%     83.64% # Type of FU issued
system.switch_cpus0.iq.FU_type_0::SimdFloatCvt            0      0.00%     83.64% # Type of FU issued
system.switch_cpus0.iq.FU_type_0::SimdFloatDiv            0      0.00%     83.64% # Type of FU issued
system.switch_cpus0.iq.FU_type_0::SimdFloatMisc        16022      0.01%     83.65% # Type of FU issued
system.switch_cpus0.iq.FU_type_0::SimdFloatMult            0      0.00%     83.65% # Type of FU issued
system.switch_cpus0.iq.FU_type_0::SimdFloatMultAcc            0      0.00%     83.65% # Type of FU issued
system.switch_cpus0.iq.FU_type_0::SimdFloatSqrt            0      0.00%     83.65% # Type of FU issued
system.switch_cpus0.iq.FU_type_0::MemRead     15736607     10.65%     94.29% # Type of FU issued
system.switch_cpus0.iq.FU_type_0::MemWrite      8435933      5.71%    100.00% # Type of FU issued
system.switch_cpus0.iq.FU_type_0::IprAccess            0      0.00%    100.00% # Type of FU issued
system.switch_cpus0.iq.FU_type_0::InstPrefetch            0      0.00%    100.00% # Type of FU issued
system.switch_cpus0.iq.FU_type_0::total     147821659                       # Type of FU issued
system.switch_cpus0.iq.rate                  1.643693                       # Inst issue rate
system.switch_cpus0.iq.fu_busy_cnt            1543647                       # FU busy when requested
system.switch_cpus0.iq.fu_busy_rate          0.010443                       # FU busy rate (busy events/executed inst)
system.switch_cpus0.iq.int_inst_queue_reads    383585000                       # Number of integer instruction queue reads
system.switch_cpus0.iq.int_inst_queue_writes    245263394                       # Number of integer instruction queue writes
system.switch_cpus0.iq.int_inst_queue_wakeup_accesses    143673657                       # Number of integer instruction queue wakeup accesses
system.switch_cpus0.iq.fp_inst_queue_reads            0                       # Number of floating instruction queue reads
system.switch_cpus0.iq.fp_inst_queue_writes            0                       # Number of floating instruction queue writes
system.switch_cpus0.iq.fp_inst_queue_wakeup_accesses            0                       # Number of floating instruction queue wakeup accesses
system.switch_cpus0.iq.int_alu_accesses     149365306                       # Number of integer alu accesses
system.switch_cpus0.iq.fp_alu_accesses              0                       # Number of floating point alu accesses
system.switch_cpus0.iew.lsq.thread0.forwLoads       261997                       # Number of loads that had data forwarded from stores
system.switch_cpus0.iew.lsq.thread0.invAddrLoads            0                       # Number of loads ignored due to an invalid address
system.switch_cpus0.iew.lsq.thread0.squashedLoads      7029130                       # Number of loads squashed
system.switch_cpus0.iew.lsq.thread0.ignoredResponses          406                       # Number of memory responses ignored because the instruction is squashed
system.switch_cpus0.iew.lsq.thread0.memOrderViolation         1038                       # Number of memory ordering violations
system.switch_cpus0.iew.lsq.thread0.squashedStores      2289061                       # Number of stores squashed
system.switch_cpus0.iew.lsq.thread0.invAddrSwpfs            0                       # Number of software prefetches ignored due to an invalid address
system.switch_cpus0.iew.lsq.thread0.blockedLoads            0                       # Number of blocked loads due to partial load-store forwarding
system.switch_cpus0.iew.lsq.thread0.rescheduledLoads          568                       # Number of loads that were rescheduled
system.switch_cpus0.iew.lsq.thread0.cacheBlocked            0                       # Number of times an access to memory failed due to the cache being blocked
system.switch_cpus0.iew.iewIdleCycles               0                       # Number of cycles IEW is idle
system.switch_cpus0.iew.iewSquashCycles       8769847                       # Number of cycles IEW is squashing
system.switch_cpus0.iew.iewBlockCycles        3669066                       # Number of cycles IEW is blocking
system.switch_cpus0.iew.iewUnblockCycles       164123                       # Number of cycles IEW is unblocking
system.switch_cpus0.iew.iewDispatchedInsts    184103721                       # Number of instructions dispatched to IQ
system.switch_cpus0.iew.iewDispSquashedInsts       297836                       # Number of squashed instructions skipped by dispatch
system.switch_cpus0.iew.iewDispLoadInsts     19241259                       # Number of dispatched load instructions
system.switch_cpus0.iew.iewDispStoreInsts     10030734                       # Number of dispatched store instructions
system.switch_cpus0.iew.iewDispNonSpecInsts        17551                       # Number of dispatched non-speculative instructions
system.switch_cpus0.iew.iewIQFullEvents        117326                       # Number of times the IQ has become full, causing a stall
system.switch_cpus0.iew.iewLSQFullEvents         6674                       # Number of times the LSQ has become full, causing a stall
system.switch_cpus0.iew.memOrderViolationEvents         1038                       # Number of memory order violations
system.switch_cpus0.iew.predictedTakenIncorrect      1233367                       # Number of branches that were predicted taken incorrectly
system.switch_cpus0.iew.predictedNotTakenIncorrect      1132360                       # Number of branches that were predicted not taken incorrectly
system.switch_cpus0.iew.branchMispredicts      2365727                       # Number of branch mispredicts detected at execute
system.switch_cpus0.iew.iewExecutedInsts    145238615                       # Number of executed instructions
system.switch_cpus0.iew.iewExecLoadInsts     14788186                       # Number of load instructions executed
system.switch_cpus0.iew.iewExecSquashedInsts      2583040                       # Number of squashed instructions skipped in execute
system.switch_cpus0.iew.exec_swp                    0                       # number of swp insts executed
system.switch_cpus0.iew.exec_nop                    0                       # number of nop insts executed
system.switch_cpus0.iew.exec_refs            22982225                       # number of memory reference insts executed
system.switch_cpus0.iew.exec_branches        20588047                       # Number of branches executed
system.switch_cpus0.iew.exec_stores           8194039                       # Number of stores executed
system.switch_cpus0.iew.exec_rate            1.614971                       # Inst execution rate
system.switch_cpus0.iew.wb_sent             143817954                       # cumulative count of insts sent to commit
system.switch_cpus0.iew.wb_count            143673657                       # cumulative count of insts written-back
system.switch_cpus0.iew.wb_producers         93730185                       # num instructions producing a value
system.switch_cpus0.iew.wb_consumers        261844220                       # num instructions consuming a value
system.switch_cpus0.iew.wb_penalized                0                       # number of instrctions required to write to 'other' IQ
system.switch_cpus0.iew.wb_rate              1.597570                       # insts written-back per cycle
system.switch_cpus0.iew.wb_fanout            0.357962                       # average fanout of values written-back
system.switch_cpus0.iew.wb_penalized_rate            0                       # fraction of instructions written-back that wrote to 'other' IQ
system.switch_cpus0.commit.commitCommittedInsts    100000000                       # The number of committed instructions
system.switch_cpus0.commit.commitCommittedOps    122421920                       # The number of committed instructions
system.switch_cpus0.commit.commitSquashedInsts     61685741                       # The number of squashed insts skipped by commit
system.switch_cpus0.commit.commitNonSpecStalls        32044                       # The number of times commit has been forced to stall to communicate backwards
system.switch_cpus0.commit.branchMispredicts      2044192                       # The number of times a branch was mispredicted
system.switch_cpus0.commit.committed_per_cycle::samples     77339961                       # Number of insts commited each cycle
system.switch_cpus0.commit.committed_per_cycle::mean     1.582906                       # Number of insts commited each cycle
system.switch_cpus0.commit.committed_per_cycle::stdev     2.158343                       # Number of insts commited each cycle
system.switch_cpus0.commit.committed_per_cycle::underflows            0      0.00%      0.00% # Number of insts commited each cycle
system.switch_cpus0.commit.committed_per_cycle::0     32015848     41.40%     41.40% # Number of insts commited each cycle
system.switch_cpus0.commit.committed_per_cycle::1     20463201     26.46%     67.86% # Number of insts commited each cycle
system.switch_cpus0.commit.committed_per_cycle::2      8383790     10.84%     78.70% # Number of insts commited each cycle
system.switch_cpus0.commit.committed_per_cycle::3      4295150      5.55%     84.25% # Number of insts commited each cycle
system.switch_cpus0.commit.committed_per_cycle::4      3682071      4.76%     89.01% # Number of insts commited each cycle
system.switch_cpus0.commit.committed_per_cycle::5      1806084      2.34%     91.34% # Number of insts commited each cycle
system.switch_cpus0.commit.committed_per_cycle::6      1997712      2.58%     93.93% # Number of insts commited each cycle
system.switch_cpus0.commit.committed_per_cycle::7      1008127      1.30%     95.23% # Number of insts commited each cycle
system.switch_cpus0.commit.committed_per_cycle::8      3687978      4.77%    100.00% # Number of insts commited each cycle
system.switch_cpus0.commit.committed_per_cycle::overflows            0      0.00%    100.00% # Number of insts commited each cycle
system.switch_cpus0.commit.committed_per_cycle::min_value            0                       # Number of insts commited each cycle
system.switch_cpus0.commit.committed_per_cycle::max_value            8                       # Number of insts commited each cycle
system.switch_cpus0.commit.committed_per_cycle::total     77339961                       # Number of insts commited each cycle
system.switch_cpus0.commit.committedInsts    100000000                       # Number of instructions committed
system.switch_cpus0.commit.committedOps     122421920                       # Number of ops (including micro ops) committed
system.switch_cpus0.commit.swp_count                0                       # Number of s/w prefetches committed
system.switch_cpus0.commit.refs              19953799                       # Number of memory references committed
system.switch_cpus0.commit.loads             12212129                       # Number of loads committed
system.switch_cpus0.commit.membars              16022                       # Number of memory barriers committed
system.switch_cpus0.commit.branches          17573934                       # Number of branches committed
system.switch_cpus0.commit.fp_insts                 0                       # Number of committed floating point instructions.
system.switch_cpus0.commit.int_insts        110146126                       # Number of committed integer instructions.
system.switch_cpus0.commit.function_calls      2413416                       # Number of function calls committed.
system.switch_cpus0.commit.bw_lim_events      3687978                       # number cycles where commit BW limit reached
system.switch_cpus0.commit.bw_limited               0                       # number of insts not committed due to BW limits
system.switch_cpus0.rob.rob_reads           257759644                       # The number of ROB reads
system.switch_cpus0.rob.rob_writes          376993594                       # The number of ROB writes
system.switch_cpus0.timesIdled                  44197                       # Number of times that the entire CPU went into an idle state and unscheduled itself
system.switch_cpus0.idleCycles                3822832                       # Total number of cycles that the CPU has spent unscheduled due to idling
system.switch_cpus0.committedInsts          100000000                       # Number of Instructions Simulated
system.switch_cpus0.committedOps            122421920                       # Number of Ops (including micro ops) Simulated
system.switch_cpus0.committedInsts_total    100000000                       # Number of Instructions Simulated
system.switch_cpus0.cpi                      0.899326                       # CPI: Cycles Per Instruction
system.switch_cpus0.cpi_total                0.899326                       # CPI: Total CPI of All Threads
system.switch_cpus0.ipc                      1.111943                       # IPC: Instructions Per Cycle
system.switch_cpus0.ipc_total                1.111943                       # IPC: Total IPC of All Threads
system.switch_cpus0.int_regfile_reads       655726927                       # number of integer regfile reads
system.switch_cpus0.int_regfile_writes      197095682                       # number of integer regfile writes
system.switch_cpus0.misc_regfile_reads      189544902                       # number of misc regfile reads
system.switch_cpus0.misc_regfile_writes         32044                       # number of misc regfile writes
system.switch_cpus1.dtb.inst_hits                   0                       # ITB inst hits
system.switch_cpus1.dtb.inst_misses                 0                       # ITB inst misses
system.switch_cpus1.dtb.read_hits                   0                       # DTB read hits
system.switch_cpus1.dtb.read_misses                 0                       # DTB read misses
system.switch_cpus1.dtb.write_hits                  0                       # DTB write hits
system.switch_cpus1.dtb.write_misses                0                       # DTB write misses
system.switch_cpus1.dtb.flush_tlb                   0                       # Number of times complete TLB was flushed
system.switch_cpus1.dtb.flush_tlb_mva               0                       # Number of times TLB was flushed by MVA
system.switch_cpus1.dtb.flush_tlb_mva_asid            0                       # Number of times TLB was flushed by MVA & ASID
system.switch_cpus1.dtb.flush_tlb_asid              0                       # Number of times TLB was flushed by ASID
system.switch_cpus1.dtb.flush_entries               0                       # Number of entries that have been flushed from TLB
system.switch_cpus1.dtb.align_faults                0                       # Number of TLB faults due to alignment restrictions
system.switch_cpus1.dtb.prefetch_faults             0                       # Number of TLB faults due to prefetch
system.switch_cpus1.dtb.domain_faults               0                       # Number of TLB faults due to domain restrictions
system.switch_cpus1.dtb.perms_faults                0                       # Number of TLB faults due to permissions restrictions
system.switch_cpus1.dtb.read_accesses               0                       # DTB read accesses
system.switch_cpus1.dtb.write_accesses              0                       # DTB write accesses
system.switch_cpus1.dtb.inst_accesses               0                       # ITB inst accesses
system.switch_cpus1.dtb.hits                        0                       # DTB hits
system.switch_cpus1.dtb.misses                      0                       # DTB misses
system.switch_cpus1.dtb.accesses                    0                       # DTB accesses
system.switch_cpus1.itb.inst_hits                   0                       # ITB inst hits
system.switch_cpus1.itb.inst_misses                 0                       # ITB inst misses
system.switch_cpus1.itb.read_hits                   0                       # DTB read hits
system.switch_cpus1.itb.read_misses                 0                       # DTB read misses
system.switch_cpus1.itb.write_hits                  0                       # DTB write hits
system.switch_cpus1.itb.write_misses                0                       # DTB write misses
system.switch_cpus1.itb.flush_tlb                   0                       # Number of times complete TLB was flushed
system.switch_cpus1.itb.flush_tlb_mva               0                       # Number of times TLB was flushed by MVA
system.switch_cpus1.itb.flush_tlb_mva_asid            0                       # Number of times TLB was flushed by MVA & ASID
system.switch_cpus1.itb.flush_tlb_asid              0                       # Number of times TLB was flushed by ASID
system.switch_cpus1.itb.flush_entries               0                       # Number of entries that have been flushed from TLB
system.switch_cpus1.itb.align_faults                0                       # Number of TLB faults due to alignment restrictions
system.switch_cpus1.itb.prefetch_faults             0                       # Number of TLB faults due to prefetch
system.switch_cpus1.itb.domain_faults               0                       # Number of TLB faults due to domain restrictions
system.switch_cpus1.itb.perms_faults                0                       # Number of TLB faults due to permissions restrictions
system.switch_cpus1.itb.read_accesses               0                       # DTB read accesses
system.switch_cpus1.itb.write_accesses              0                       # DTB write accesses
system.switch_cpus1.itb.inst_accesses               0                       # ITB inst accesses
system.switch_cpus1.itb.hits                        0                       # DTB hits
system.switch_cpus1.itb.misses                      0                       # DTB misses
system.switch_cpus1.itb.accesses                    0                       # DTB accesses
system.cpu1.workload.num_syscalls                   0                       # Number of system calls
system.switch_cpus1.numCycles                89932640                       # number of cpu cycles simulated
system.switch_cpus1.numWorkItemsStarted             0                       # number of work items this cpu started
system.switch_cpus1.numWorkItemsCompleted            0                       # number of work items this cpu completed
system.switch_cpus1.BPredUnit.lookups        31189727                       # Number of BP lookups
system.switch_cpus1.BPredUnit.condPredicted     27277541                       # Number of conditional branches predicted
system.switch_cpus1.BPredUnit.condIncorrect      1970984                       # Number of conditional branches incorrect
system.switch_cpus1.BPredUnit.BTBLookups     15682362                       # Number of BTB lookups
system.switch_cpus1.BPredUnit.BTBHits        15019524                       # Number of BTB hits
system.switch_cpus1.BPredUnit.BTBCorrect            0                       # Number of correct BTB predictions (this stat may not work properly.
system.switch_cpus1.BPredUnit.usedRAS         2240307                       # Number of times the RAS was used to get a target.
system.switch_cpus1.BPredUnit.RASInCorrect        62270                       # Number of incorrect RAS predictions.
system.switch_cpus1.fetch.icacheStallCycles     36796425                       # Number of cycles fetch is stalled on an Icache miss
system.switch_cpus1.fetch.Insts             173580589                       # Number of instructions fetch has processed
system.switch_cpus1.fetch.Branches           31189727                       # Number of branches that fetch encountered
system.switch_cpus1.fetch.predictedBranches     17259831                       # Number of branches that fetch has predicted taken
system.switch_cpus1.fetch.Cycles             35736002                       # Number of cycles fetch has run and was not squashing or blocked
system.switch_cpus1.fetch.SquashCycles        9680789                       # Number of cycles fetch has spent squashing
system.switch_cpus1.fetch.BlockedCycles       4779195                       # Number of cycles fetch has spent blocked
system.switch_cpus1.fetch.PendingTrapStallCycles           30                       # Number of stall cycles due to pending traps
system.switch_cpus1.fetch.CacheLines         18140084                       # Number of cache lines fetched
system.switch_cpus1.fetch.IcacheSquashes       781794                       # Number of outstanding Icache misses that were squashed
system.switch_cpus1.fetch.rateDist::samples     85010210                       # Number of instructions fetched each cycle (Total)
system.switch_cpus1.fetch.rateDist::mean     2.349991                       # Number of instructions fetched each cycle (Total)
system.switch_cpus1.fetch.rateDist::stdev     3.166067                       # Number of instructions fetched each cycle (Total)
system.switch_cpus1.fetch.rateDist::underflows            0      0.00%      0.00% # Number of instructions fetched each cycle (Total)
system.switch_cpus1.fetch.rateDist::0        49274208     57.96%     57.96% # Number of instructions fetched each cycle (Total)
system.switch_cpus1.fetch.rateDist::1         1768258      2.08%     60.04% # Number of instructions fetched each cycle (Total)
system.switch_cpus1.fetch.rateDist::2         3242878      3.81%     63.86% # Number of instructions fetched each cycle (Total)
system.switch_cpus1.fetch.rateDist::3         3037180      3.57%     67.43% # Number of instructions fetched each cycle (Total)
system.switch_cpus1.fetch.rateDist::4         5014786      5.90%     73.33% # Number of instructions fetched each cycle (Total)
system.switch_cpus1.fetch.rateDist::5         5214110      6.13%     79.46% # Number of instructions fetched each cycle (Total)
system.switch_cpus1.fetch.rateDist::6         1232281      1.45%     80.91% # Number of instructions fetched each cycle (Total)
system.switch_cpus1.fetch.rateDist::7          927760      1.09%     82.00% # Number of instructions fetched each cycle (Total)
system.switch_cpus1.fetch.rateDist::8        15298749     18.00%    100.00% # Number of instructions fetched each cycle (Total)
system.switch_cpus1.fetch.rateDist::overflows            0      0.00%    100.00% # Number of instructions fetched each cycle (Total)
system.switch_cpus1.fetch.rateDist::min_value            0                       # Number of instructions fetched each cycle (Total)
system.switch_cpus1.fetch.rateDist::max_value            8                       # Number of instructions fetched each cycle (Total)
system.switch_cpus1.fetch.rateDist::total     85010210                       # Number of instructions fetched each cycle (Total)
system.switch_cpus1.fetch.branchRate         0.346812                       # Number of branch fetches per cycle
system.switch_cpus1.fetch.rate               1.930118                       # Number of inst fetches per cycle
system.switch_cpus1.decode.IdleCycles        37964192                       # Number of cycles decode is idle
system.switch_cpus1.decode.BlockedCycles      4630431                       # Number of cycles decode is blocked
system.switch_cpus1.decode.RunCycles         34585342                       # Number of cycles decode is running
system.switch_cpus1.decode.UnblockCycles       137352                       # Number of cycles decode is unblocking
system.switch_cpus1.decode.SquashCycles       7692892                       # Number of cycles decode is squashing
system.switch_cpus1.decode.BranchResolved      3384103                       # Number of times decode resolved a branch
system.switch_cpus1.decode.BranchMispred         5677                       # Number of times decode detected a branch misprediction
system.switch_cpus1.decode.DecodedInsts     194165028                       # Number of instructions handled by decode
system.switch_cpus1.decode.SquashedInsts         1383                       # Number of squashed instructions handled by decode
system.switch_cpus1.rename.SquashCycles       7692892                       # Number of cycles rename is squashing
system.switch_cpus1.rename.IdleCycles        39555836                       # Number of cycles rename is idle
system.switch_cpus1.rename.BlockCycles        1924625                       # Number of cycles rename is blocking
system.switch_cpus1.rename.serializeStallCycles       489959                       # count of cycles rename stalled for serializing inst
system.switch_cpus1.rename.RunCycles         33119160                       # Number of cycles rename is running
system.switch_cpus1.rename.UnblockCycles      2227737                       # Number of cycles rename is unblocking
system.switch_cpus1.rename.RenamedInsts     189078801                       # Number of instructions processed by rename
system.switch_cpus1.rename.ROBFullEvents           31                       # Number of times rename has blocked due to ROB full
system.switch_cpus1.rename.IQFullEvents        752789                       # Number of times rename has blocked due to IQ full
system.switch_cpus1.rename.LSQFullEvents       914530                       # Number of times rename has blocked due to LSQ full
system.switch_cpus1.rename.RenamedOperands    250936134                       # Number of destination operands rename has renamed
system.switch_cpus1.rename.RenameLookups    860604447                       # Number of register rename lookups that rename has made
system.switch_cpus1.rename.int_rename_lookups    860604447                       # Number of integer rename lookups
system.switch_cpus1.rename.CommittedMaps    163544876                       # Number of HB maps that are committed
system.switch_cpus1.rename.UndoneMaps        87391223                       # Number of HB maps that are undone due to squashing
system.switch_cpus1.rename.serializingInsts        22275                       # count of serializing insts renamed
system.switch_cpus1.rename.tempSerializingInsts        10889                       # count of temporary serializing insts renamed
system.switch_cpus1.rename.skidInsts          5929529                       # count of insts added to the skid buffer
system.switch_cpus1.memDep0.insertedLoads     29161282                       # Number of loads inserted to the mem dependence unit.
system.switch_cpus1.memDep0.insertedStores      6318135                       # Number of stores inserted to the mem dependence unit.
system.switch_cpus1.memDep0.conflictingLoads       104862                       # Number of conflicting loads.
system.switch_cpus1.memDep0.conflictingStores      2133566                       # Number of conflicting stores.
system.switch_cpus1.iq.iqInstsAdded         178994386                       # Number of instructions added to the IQ (excludes non-spec)
system.switch_cpus1.iq.iqNonSpecInstsAdded        21757                       # Number of non-speculative instructions added to the IQ
system.switch_cpus1.iq.iqInstsIssued        151168461                       # Number of instructions issued
system.switch_cpus1.iq.iqSquashedInstsIssued       199557                       # Number of squashed instructions issued
system.switch_cpus1.iq.iqSquashedInstsExamined     53505392                       # Number of squashed instructions iterated over during squash; mainly for profiling
system.switch_cpus1.iq.iqSquashedOperandsExamined    147017806                       # Number of squashed operands that are examined and possibly removed from graph
system.switch_cpus1.iq.iqSquashedNonSpecRemoved           21                       # Number of squashed non-spec instructions that were removed
system.switch_cpus1.iq.issued_per_cycle::samples     85010210                       # Number of insts issued each cycle
system.switch_cpus1.iq.issued_per_cycle::mean     1.778239                       # Number of insts issued each cycle
system.switch_cpus1.iq.issued_per_cycle::stdev     1.839413                       # Number of insts issued each cycle
system.switch_cpus1.iq.issued_per_cycle::underflows            0      0.00%      0.00% # Number of insts issued each cycle
system.switch_cpus1.iq.issued_per_cycle::0     29688298     34.92%     34.92% # Number of insts issued each cycle
system.switch_cpus1.iq.issued_per_cycle::1     15793617     18.58%     53.50% # Number of insts issued each cycle
system.switch_cpus1.iq.issued_per_cycle::2     13793877     16.23%     69.73% # Number of insts issued each cycle
system.switch_cpus1.iq.issued_per_cycle::3      8412892      9.90%     79.62% # Number of insts issued each cycle
system.switch_cpus1.iq.issued_per_cycle::4      8816682     10.37%     90.00% # Number of insts issued each cycle
system.switch_cpus1.iq.issued_per_cycle::5      5194959      6.11%     96.11% # Number of insts issued each cycle
system.switch_cpus1.iq.issued_per_cycle::6      2282308      2.68%     98.79% # Number of insts issued each cycle
system.switch_cpus1.iq.issued_per_cycle::7       607573      0.71%     99.51% # Number of insts issued each cycle
system.switch_cpus1.iq.issued_per_cycle::8       420004      0.49%    100.00% # Number of insts issued each cycle
system.switch_cpus1.iq.issued_per_cycle::overflows            0      0.00%    100.00% # Number of insts issued each cycle
system.switch_cpus1.iq.issued_per_cycle::min_value            0                       # Number of insts issued each cycle
system.switch_cpus1.iq.issued_per_cycle::max_value            8                       # Number of insts issued each cycle
system.switch_cpus1.iq.issued_per_cycle::total     85010210                       # Number of insts issued each cycle
system.switch_cpus1.iq.fu_full::No_OpClass            0      0.00%      0.00% # attempts to use FU when none available
system.switch_cpus1.iq.fu_full::IntAlu         593008     66.27%     66.27% # attempts to use FU when none available
system.switch_cpus1.iq.fu_full::IntMult             0      0.00%     66.27% # attempts to use FU when none available
system.switch_cpus1.iq.fu_full::IntDiv              0      0.00%     66.27% # attempts to use FU when none available
system.switch_cpus1.iq.fu_full::FloatAdd            0      0.00%     66.27% # attempts to use FU when none available
system.switch_cpus1.iq.fu_full::FloatCmp            0      0.00%     66.27% # attempts to use FU when none available
system.switch_cpus1.iq.fu_full::FloatCvt            0      0.00%     66.27% # attempts to use FU when none available
system.switch_cpus1.iq.fu_full::FloatMult            0      0.00%     66.27% # attempts to use FU when none available
system.switch_cpus1.iq.fu_full::FloatDiv            0      0.00%     66.27% # attempts to use FU when none available
system.switch_cpus1.iq.fu_full::FloatSqrt            0      0.00%     66.27% # attempts to use FU when none available
system.switch_cpus1.iq.fu_full::SimdAdd             0      0.00%     66.27% # attempts to use FU when none available
system.switch_cpus1.iq.fu_full::SimdAddAcc            0      0.00%     66.27% # attempts to use FU when none available
system.switch_cpus1.iq.fu_full::SimdAlu             0      0.00%     66.27% # attempts to use FU when none available
system.switch_cpus1.iq.fu_full::SimdCmp             0      0.00%     66.27% # attempts to use FU when none available
system.switch_cpus1.iq.fu_full::SimdCvt             0      0.00%     66.27% # attempts to use FU when none available
system.switch_cpus1.iq.fu_full::SimdMisc            0      0.00%     66.27% # attempts to use FU when none available
system.switch_cpus1.iq.fu_full::SimdMult            0      0.00%     66.27% # attempts to use FU when none available
system.switch_cpus1.iq.fu_full::SimdMultAcc            0      0.00%     66.27% # attempts to use FU when none available
system.switch_cpus1.iq.fu_full::SimdShift            0      0.00%     66.27% # attempts to use FU when none available
system.switch_cpus1.iq.fu_full::SimdShiftAcc            0      0.00%     66.27% # attempts to use FU when none available
system.switch_cpus1.iq.fu_full::SimdSqrt            0      0.00%     66.27% # attempts to use FU when none available
system.switch_cpus1.iq.fu_full::SimdFloatAdd            0      0.00%     66.27% # attempts to use FU when none available
system.switch_cpus1.iq.fu_full::SimdFloatAlu            0      0.00%     66.27% # attempts to use FU when none available
system.switch_cpus1.iq.fu_full::SimdFloatCmp            0      0.00%     66.27% # attempts to use FU when none available
system.switch_cpus1.iq.fu_full::SimdFloatCvt            0      0.00%     66.27% # attempts to use FU when none available
system.switch_cpus1.iq.fu_full::SimdFloatDiv            0      0.00%     66.27% # attempts to use FU when none available
system.switch_cpus1.iq.fu_full::SimdFloatMisc            0      0.00%     66.27% # attempts to use FU when none available
system.switch_cpus1.iq.fu_full::SimdFloatMult            0      0.00%     66.27% # attempts to use FU when none available
system.switch_cpus1.iq.fu_full::SimdFloatMultAcc            0      0.00%     66.27% # attempts to use FU when none available
system.switch_cpus1.iq.fu_full::SimdFloatSqrt            0      0.00%     66.27% # attempts to use FU when none available
system.switch_cpus1.iq.fu_full::MemRead        191359     21.38%     87.65% # attempts to use FU when none available
system.switch_cpus1.iq.fu_full::MemWrite       110525     12.35%    100.00% # attempts to use FU when none available
system.switch_cpus1.iq.fu_full::IprAccess            0      0.00%    100.00% # attempts to use FU when none available
system.switch_cpus1.iq.fu_full::InstPrefetch            0      0.00%    100.00% # attempts to use FU when none available
system.switch_cpus1.iq.FU_type_0::No_OpClass            0      0.00%      0.00% # Type of FU issued
system.switch_cpus1.iq.FU_type_0::IntAlu    118528132     78.41%     78.41% # Type of FU issued
system.switch_cpus1.iq.FU_type_0::IntMult      1189059      0.79%     79.19% # Type of FU issued
system.switch_cpus1.iq.FU_type_0::IntDiv            0      0.00%     79.19% # Type of FU issued
system.switch_cpus1.iq.FU_type_0::FloatAdd            0      0.00%     79.19% # Type of FU issued
system.switch_cpus1.iq.FU_type_0::FloatCmp            0      0.00%     79.19% # Type of FU issued
system.switch_cpus1.iq.FU_type_0::FloatCvt            0      0.00%     79.19% # Type of FU issued
system.switch_cpus1.iq.FU_type_0::FloatMult            0      0.00%     79.19% # Type of FU issued
system.switch_cpus1.iq.FU_type_0::FloatDiv            0      0.00%     79.19% # Type of FU issued
system.switch_cpus1.iq.FU_type_0::FloatSqrt            0      0.00%     79.19% # Type of FU issued
system.switch_cpus1.iq.FU_type_0::SimdAdd            0      0.00%     79.19% # Type of FU issued
system.switch_cpus1.iq.FU_type_0::SimdAddAcc            0      0.00%     79.19% # Type of FU issued
system.switch_cpus1.iq.FU_type_0::SimdAlu            0      0.00%     79.19% # Type of FU issued
system.switch_cpus1.iq.FU_type_0::SimdCmp            0      0.00%     79.19% # Type of FU issued
system.switch_cpus1.iq.FU_type_0::SimdCvt            0      0.00%     79.19% # Type of FU issued
system.switch_cpus1.iq.FU_type_0::SimdMisc            0      0.00%     79.19% # Type of FU issued
system.switch_cpus1.iq.FU_type_0::SimdMult            0      0.00%     79.19% # Type of FU issued
system.switch_cpus1.iq.FU_type_0::SimdMultAcc            0      0.00%     79.19% # Type of FU issued
system.switch_cpus1.iq.FU_type_0::SimdShift            0      0.00%     79.19% # Type of FU issued
system.switch_cpus1.iq.FU_type_0::SimdShiftAcc            0      0.00%     79.19% # Type of FU issued
system.switch_cpus1.iq.FU_type_0::SimdSqrt            0      0.00%     79.19% # Type of FU issued
system.switch_cpus1.iq.FU_type_0::SimdFloatAdd            0      0.00%     79.19% # Type of FU issued
system.switch_cpus1.iq.FU_type_0::SimdFloatAlu            0      0.00%     79.19% # Type of FU issued
system.switch_cpus1.iq.FU_type_0::SimdFloatCmp            0      0.00%     79.19% # Type of FU issued
system.switch_cpus1.iq.FU_type_0::SimdFloatCvt            0      0.00%     79.19% # Type of FU issued
system.switch_cpus1.iq.FU_type_0::SimdFloatDiv            0      0.00%     79.19% # Type of FU issued
system.switch_cpus1.iq.FU_type_0::SimdFloatMisc        10869      0.01%     79.20% # Type of FU issued
system.switch_cpus1.iq.FU_type_0::SimdFloatMult            0      0.00%     79.20% # Type of FU issued
system.switch_cpus1.iq.FU_type_0::SimdFloatMultAcc            0      0.00%     79.20% # Type of FU issued
system.switch_cpus1.iq.FU_type_0::SimdFloatSqrt            0      0.00%     79.20% # Type of FU issued
system.switch_cpus1.iq.FU_type_0::MemRead     26075354     17.25%     96.45% # Type of FU issued
system.switch_cpus1.iq.FU_type_0::MemWrite      5365047      3.55%    100.00% # Type of FU issued
system.switch_cpus1.iq.FU_type_0::IprAccess            0      0.00%    100.00% # Type of FU issued
system.switch_cpus1.iq.FU_type_0::InstPrefetch            0      0.00%    100.00% # Type of FU issued
system.switch_cpus1.iq.FU_type_0::total     151168461                       # Type of FU issued
system.switch_cpus1.iq.rate                  1.680908                       # Inst issue rate
system.switch_cpus1.iq.fu_busy_cnt             894892                       # FU busy when requested
system.switch_cpus1.iq.fu_busy_rate          0.005920                       # FU busy rate (busy events/executed inst)
system.switch_cpus1.iq.int_inst_queue_reads    388441579                       # Number of integer instruction queue reads
system.switch_cpus1.iq.int_inst_queue_writes    232522015                       # Number of integer instruction queue writes
system.switch_cpus1.iq.int_inst_queue_wakeup_accesses    146259432                       # Number of integer instruction queue wakeup accesses
system.switch_cpus1.iq.fp_inst_queue_reads            0                       # Number of floating instruction queue reads
system.switch_cpus1.iq.fp_inst_queue_writes            0                       # Number of floating instruction queue writes
system.switch_cpus1.iq.fp_inst_queue_wakeup_accesses            0                       # Number of floating instruction queue wakeup accesses
system.switch_cpus1.iq.int_alu_accesses     152063353                       # Number of integer alu accesses
system.switch_cpus1.iq.fp_alu_accesses              0                       # Number of floating point alu accesses
system.switch_cpus1.iew.lsq.thread0.forwLoads       368849                       # Number of loads that had data forwarded from stores
system.switch_cpus1.iew.lsq.thread0.invAddrLoads            0                       # Number of loads ignored due to an invalid address
system.switch_cpus1.iew.lsq.thread0.squashedLoads      8308008                       # Number of loads squashed
system.switch_cpus1.iew.lsq.thread0.ignoredResponses          883                       # Number of memory responses ignored because the instruction is squashed
system.switch_cpus1.iew.lsq.thread0.memOrderViolation          481                       # Number of memory ordering violations
system.switch_cpus1.iew.lsq.thread0.squashedStores      1545374                       # Number of stores squashed
system.switch_cpus1.iew.lsq.thread0.invAddrSwpfs            0                       # Number of software prefetches ignored due to an invalid address
system.switch_cpus1.iew.lsq.thread0.blockedLoads            0                       # Number of blocked loads due to partial load-store forwarding
system.switch_cpus1.iew.lsq.thread0.rescheduledLoads            0                       # Number of loads that were rescheduled
system.switch_cpus1.iew.lsq.thread0.cacheBlocked            0                       # Number of times an access to memory failed due to the cache being blocked
system.switch_cpus1.iew.iewIdleCycles               0                       # Number of cycles IEW is idle
system.switch_cpus1.iew.iewSquashCycles       7692892                       # Number of cycles IEW is squashing
system.switch_cpus1.iew.iewBlockCycles        1241526                       # Number of cycles IEW is blocking
system.switch_cpus1.iew.iewUnblockCycles        68129                       # Number of cycles IEW is unblocking
system.switch_cpus1.iew.iewDispatchedInsts    179016147                       # Number of instructions dispatched to IQ
system.switch_cpus1.iew.iewDispSquashedInsts       208896                       # Number of squashed instructions skipped by dispatch
system.switch_cpus1.iew.iewDispLoadInsts     29161282                       # Number of dispatched load instructions
system.switch_cpus1.iew.iewDispStoreInsts      6318135                       # Number of dispatched store instructions
system.switch_cpus1.iew.iewDispNonSpecInsts        10889                       # Number of dispatched non-speculative instructions
system.switch_cpus1.iew.iewIQFullEvents         33225                       # Number of times the IQ has become full, causing a stall
system.switch_cpus1.iew.iewLSQFullEvents          265                       # Number of times the LSQ has become full, causing a stall
system.switch_cpus1.iew.memOrderViolationEvents          481                       # Number of memory order violations
system.switch_cpus1.iew.predictedTakenIncorrect      1052318                       # Number of branches that were predicted taken incorrectly
system.switch_cpus1.iew.predictedNotTakenIncorrect      1158084                       # Number of branches that were predicted not taken incorrectly
system.switch_cpus1.iew.branchMispredicts      2210402                       # Number of branch mispredicts detected at execute
system.switch_cpus1.iew.iewExecutedInsts    148359614                       # Number of executed instructions
system.switch_cpus1.iew.iewExecLoadInsts     25067223                       # Number of load instructions executed
system.switch_cpus1.iew.iewExecSquashedInsts      2808845                       # Number of squashed instructions skipped in execute
system.switch_cpus1.iew.exec_swp                    0                       # number of swp insts executed
system.switch_cpus1.iew.exec_nop                    4                       # number of nop insts executed
system.switch_cpus1.iew.exec_refs            30301965                       # number of memory reference insts executed
system.switch_cpus1.iew.exec_branches        22429896                       # Number of branches executed
system.switch_cpus1.iew.exec_stores           5234742                       # Number of stores executed
system.switch_cpus1.iew.exec_rate            1.649675                       # Inst execution rate
system.switch_cpus1.iew.wb_sent             146421981                       # cumulative count of insts sent to commit
system.switch_cpus1.iew.wb_count            146259432                       # cumulative count of insts written-back
system.switch_cpus1.iew.wb_producers         89851391                       # num instructions producing a value
system.switch_cpus1.iew.wb_consumers        219114179                       # num instructions consuming a value
system.switch_cpus1.iew.wb_penalized                0                       # number of instrctions required to write to 'other' IQ
system.switch_cpus1.iew.wb_rate              1.626322                       # insts written-back per cycle
system.switch_cpus1.iew.wb_fanout            0.410067                       # average fanout of values written-back
system.switch_cpus1.iew.wb_penalized_rate            0                       # fraction of instructions written-back that wrote to 'other' IQ
system.switch_cpus1.commit.commitCommittedInsts    109925657                       # The number of committed instructions
system.switch_cpus1.commit.commitCommittedOps    124835891                       # The number of committed instructions
system.switch_cpus1.commit.commitSquashedInsts     54180975                       # The number of squashed insts skipped by commit
system.switch_cpus1.commit.commitNonSpecStalls        21736                       # The number of times commit has been forced to stall to communicate backwards
system.switch_cpus1.commit.branchMispredicts      1976212                       # The number of times a branch was mispredicted
[...]
system.cpu3.icache.ReadReq_miss_latency::total      4438065                       # number of ReadReq miss cycles
system.cpu3.icache.demand_miss_latency::switch_cpus3.inst      4438065                       # number of demand (read+write) miss cycles
system.cpu3.icache.demand_miss_latency::total      4438065                       # number of demand (read+write) miss cycles
system.cpu3.icache.overall_miss_latency::switch_cpus3.inst      4438065                       # number of overall miss cycles
system.cpu3.icache.overall_miss_latency::total      4438065                       # number of overall miss cycles
system.cpu3.icache.ReadReq_accesses::switch_cpus3.inst     16810732                       # number of ReadReq accesses(hits+misses)
system.cpu3.icache.ReadReq_accesses::total     16810732                       # number of ReadReq accesses(hits+misses)
system.cpu3.icache.demand_accesses::switch_cpus3.inst     16810732                       # number of demand (read+write) accesses
system.cpu3.icache.demand_accesses::total     16810732                       # number of demand (read+write) accesses
system.cpu3.icache.overall_accesses::switch_cpus3.inst     16810732                       # number of overall (read+write) accesses
system.cpu3.icache.overall_accesses::total     16810732                       # number of overall (read+write) accesses
system.cpu3.icache.ReadReq_miss_rate::switch_cpus3.inst     0.000001                       # miss rate for ReadReq accesses
system.cpu3.icache.ReadReq_miss_rate::total     0.000001                       # miss rate for ReadReq accesses
system.cpu3.icache.demand_miss_rate::switch_cpus3.inst     0.000001                       # miss rate for demand accesses
system.cpu3.icache.demand_miss_rate::total     0.000001                       # miss rate for demand accesses
system.cpu3.icache.overall_miss_rate::switch_cpus3.inst     0.000001                       # miss rate for overall accesses
system.cpu3.icache.overall_miss_rate::total     0.000001                       # miss rate for overall accesses
system.cpu3.icache.ReadReq_avg_miss_latency::switch_cpus3.inst 221903.250000                       # average ReadReq miss latency
system.cpu3.icache.ReadReq_avg_miss_latency::total 221903.250000                       # average ReadReq miss latency
system.cpu3.icache.demand_avg_miss_latency::switch_cpus3.inst 221903.250000                       # average overall miss latency
system.cpu3.icache.demand_avg_miss_latency::total 221903.250000                       # average overall miss latency
system.cpu3.icache.overall_avg_miss_latency::switch_cpus3.inst 221903.250000                       # average overall miss latency
system.cpu3.icache.overall_avg_miss_latency::total 221903.250000                       # average overall miss latency
system.cpu3.icache.blocked_cycles::no_mshrs            0                       # number of cycles access was blocked
system.cpu3.icache.blocked_cycles::no_targets            0                       # number of cycles access was blocked
system.cpu3.icache.blocked::no_mshrs                0                       # number of cycles access was blocked
system.cpu3.icache.blocked::no_targets              0                       # number of cycles access was blocked
system.cpu3.icache.avg_blocked_cycles::no_mshrs          nan                       # average number of cycles each access was blocked
system.cpu3.icache.avg_blocked_cycles::no_targets          nan                       # average number of cycles each access was blocked
system.cpu3.icache.fast_writes                      0                       # number of fast writes performed
system.cpu3.icache.cache_copies                     0                       # number of cache copies performed
system.cpu3.icache.ReadReq_mshr_hits::switch_cpus3.inst            3                       # number of ReadReq MSHR hits
system.cpu3.icache.ReadReq_mshr_hits::total            3                       # number of ReadReq MSHR hits
system.cpu3.icache.demand_mshr_hits::switch_cpus3.inst            3                       # number of demand (read+write) MSHR hits
system.cpu3.icache.demand_mshr_hits::total            3                       # number of demand (read+write) MSHR hits
system.cpu3.icache.overall_mshr_hits::switch_cpus3.inst            3                       # number of overall MSHR hits
system.cpu3.icache.overall_mshr_hits::total            3                       # number of overall MSHR hits
system.cpu3.icache.ReadReq_mshr_misses::switch_cpus3.inst           17                       # number of ReadReq MSHR misses
system.cpu3.icache.ReadReq_mshr_misses::total           17                       # number of ReadReq MSHR misses
system.cpu3.icache.demand_mshr_misses::switch_cpus3.inst           17                       # number of demand (read+write) MSHR misses
system.cpu3.icache.demand_mshr_misses::total           17                       # number of demand (read+write) MSHR misses
system.cpu3.icache.overall_mshr_misses::switch_cpus3.inst           17                       # number of overall MSHR misses
system.cpu3.icache.overall_mshr_misses::total           17                       # number of overall MSHR misses
system.cpu3.icache.ReadReq_mshr_miss_latency::switch_cpus3.inst      3830809                       # number of ReadReq MSHR miss cycles
system.cpu3.icache.ReadReq_mshr_miss_latency::total      3830809                       # number of ReadReq MSHR miss cycles
system.cpu3.icache.demand_mshr_miss_latency::switch_cpus3.inst      3830809                       # number of demand (read+write) MSHR miss cycles
system.cpu3.icache.demand_mshr_miss_latency::total      3830809                       # number of demand (read+write) MSHR miss cycles
system.cpu3.icache.overall_mshr_miss_latency::switch_cpus3.inst      3830809                       # number of overall MSHR miss cycles
system.cpu3.icache.overall_mshr_miss_latency::total      3830809                       # number of overall MSHR miss cycles
system.cpu3.icache.ReadReq_mshr_miss_rate::switch_cpus3.inst     0.000001                       # mshr miss rate for ReadReq accesses
system.cpu3.icache.ReadReq_mshr_miss_rate::total     0.000001                       # mshr miss rate for ReadReq accesses
system.cpu3.icache.demand_mshr_miss_rate::switch_cpus3.inst     0.000001                       # mshr miss rate for demand accesses
system.cpu3.icache.demand_mshr_miss_rate::total     0.000001                       # mshr miss rate for demand accesses
system.cpu3.icache.overall_mshr_miss_rate::switch_cpus3.inst     0.000001                       # mshr miss rate for overall accesses
system.cpu3.icache.overall_mshr_miss_rate::total     0.000001                       # mshr miss rate for overall accesses
system.cpu3.icache.ReadReq_avg_mshr_miss_latency::switch_cpus3.inst 225341.705882                       # average ReadReq mshr miss latency
system.cpu3.icache.ReadReq_avg_mshr_miss_latency::total 225341.705882                       # average ReadReq mshr miss latency
system.cpu3.icache.demand_avg_mshr_miss_latency::switch_cpus3.inst 225341.705882                       # average overall mshr miss latency
system.cpu3.icache.demand_avg_mshr_miss_latency::total 225341.705882                       # average overall mshr miss latency
system.cpu3.icache.overall_avg_mshr_miss_latency::switch_cpus3.inst 225341.705882                       # average overall mshr miss latency
system.cpu3.icache.overall_avg_mshr_miss_latency::total 225341.705882                       # average overall mshr miss latency
system.cpu3.icache.no_allocate_misses               0                       # Number of misses that were no-allocate
system.cpu3.dcache.replacements                 34901                       # number of replacements
system.cpu3.dcache.tagsinuse                      256                       # Cycle average of tags in use
system.cpu3.dcache.total_refs               165604037                       # Total number of references to valid blocks.
system.cpu3.dcache.sampled_refs                 35157                       # Sample count of references to valid blocks.
system.cpu3.dcache.avg_refs               4710.414341                       # Average number of references to valid blocks.
system.cpu3.dcache.warmup_cycle                     0                       # Cycle when the warmup percentage was hit.
system.cpu3.dcache.occ_blocks::switch_cpus3.data   231.101196                       # Average occupied blocks per requestor
system.cpu3.dcache.occ_blocks::cpu3.data    24.898804                       # Average occupied blocks per requestor
system.cpu3.dcache.occ_percent::switch_cpus3.data     0.902739                       # Average percentage of cache occupancy
system.cpu3.dcache.occ_percent::cpu3.data     0.097261                       # Average percentage of cache occupancy
system.cpu3.dcache.occ_percent::total               1                       # Average percentage of cache occupancy
system.cpu3.dcache.ReadReq_hits::switch_cpus3.data     10952457                       # number of ReadReq hits
system.cpu3.dcache.ReadReq_hits::total       10952457                       # number of ReadReq hits
system.cpu3.dcache.WriteReq_hits::switch_cpus3.data      7474728                       # number of WriteReq hits
system.cpu3.dcache.WriteReq_hits::total       7474728                       # number of WriteReq hits
system.cpu3.dcache.LoadLockedReq_hits::switch_cpus3.data        18092                       # number of LoadLockedReq hits
system.cpu3.dcache.LoadLockedReq_hits::total        18092                       # number of LoadLockedReq hits
system.cpu3.dcache.StoreCondReq_hits::switch_cpus3.data        18058                       # number of StoreCondReq hits
system.cpu3.dcache.StoreCondReq_hits::total        18058                       # number of StoreCondReq hits
system.cpu3.dcache.demand_hits::switch_cpus3.data     18427185                       # number of demand (read+write) hits
system.cpu3.dcache.demand_hits::total        18427185                       # number of demand (read+write) hits
system.cpu3.dcache.overall_hits::switch_cpus3.data     18427185                       # number of overall hits
system.cpu3.dcache.overall_hits::total       18427185                       # number of overall hits
system.cpu3.dcache.ReadReq_misses::switch_cpus3.data        70288                       # number of ReadReq misses
system.cpu3.dcache.ReadReq_misses::total        70288                       # number of ReadReq misses
system.cpu3.dcache.demand_misses::switch_cpus3.data        70288                       # number of demand (read+write) misses
system.cpu3.dcache.demand_misses::total         70288                       # number of demand (read+write) misses
system.cpu3.dcache.overall_misses::switch_cpus3.data        70288                       # number of overall misses
system.cpu3.dcache.overall_misses::total        70288                       # number of overall misses
system.cpu3.dcache.ReadReq_miss_latency::switch_cpus3.data   3280664044                       # number of ReadReq miss cycles
system.cpu3.dcache.ReadReq_miss_latency::total   3280664044                       # number of ReadReq miss cycles
system.cpu3.dcache.demand_miss_latency::switch_cpus3.data   3280664044                       # number of demand (read+write) miss cycles
system.cpu3.dcache.demand_miss_latency::total   3280664044                       # number of demand (read+write) miss cycles
system.cpu3.dcache.overall_miss_latency::switch_cpus3.data   3280664044                       # number of overall miss cycles
system.cpu3.dcache.overall_miss_latency::total   3280664044                       # number of overall miss cycles
system.cpu3.dcache.ReadReq_accesses::switch_cpus3.data     11022745                       # number of ReadReq accesses(hits+misses)
system.cpu3.dcache.ReadReq_accesses::total     11022745                       # number of ReadReq accesses(hits+misses)
system.cpu3.dcache.WriteReq_accesses::switch_cpus3.data      7474728                       # number of WriteReq accesses(hits+misses)
system.cpu3.dcache.WriteReq_accesses::total      7474728                       # number of WriteReq accesses(hits+misses)
system.cpu3.dcache.LoadLockedReq_accesses::switch_cpus3.data        18092                       # number of LoadLockedReq accesses(hits+misses)
system.cpu3.dcache.LoadLockedReq_accesses::total        18092                       # number of LoadLockedReq accesses(hits+misses)
system.cpu3.dcache.StoreCondReq_accesses::switch_cpus3.data        18058                       # number of StoreCondReq accesses(hits+misses)
system.cpu3.dcache.StoreCondReq_accesses::total        18058                       # number of StoreCondReq accesses(hits+misses)
system.cpu3.dcache.demand_accesses::switch_cpus3.data     18497473                       # number of demand (read+write) accesses
system.cpu3.dcache.demand_accesses::total     18497473                       # number of demand (read+write) accesses
system.cpu3.dcache.overall_accesses::switch_cpus3.data     18497473                       # number of overall (read+write) accesses
system.cpu3.dcache.overall_accesses::total     18497473                       # number of overall (read+write) accesses
system.cpu3.dcache.ReadReq_miss_rate::switch_cpus3.data     0.006377                       # miss rate for ReadReq accesses
system.cpu3.dcache.ReadReq_miss_rate::total     0.006377                       # miss rate for ReadReq accesses
system.cpu3.dcache.demand_miss_rate::switch_cpus3.data     0.003800                       # miss rate for demand accesses
system.cpu3.dcache.demand_miss_rate::total     0.003800                       # miss rate for demand accesses
system.cpu3.dcache.overall_miss_rate::switch_cpus3.data     0.003800                       # miss rate for overall accesses
system.cpu3.dcache.overall_miss_rate::total     0.003800                       # miss rate for overall accesses
system.cpu3.dcache.ReadReq_avg_miss_latency::switch_cpus3.data 46674.596574                       # average ReadReq miss latency
system.cpu3.dcache.ReadReq_avg_miss_latency::total 46674.596574                       # average ReadReq miss latency
system.cpu3.dcache.demand_avg_miss_latency::switch_cpus3.data 46674.596574                       # average overall miss latency
system.cpu3.dcache.demand_avg_miss_latency::total 46674.596574                       # average overall miss latency
system.cpu3.dcache.overall_avg_miss_latency::switch_cpus3.data 46674.596574                       # average overall miss latency
system.cpu3.dcache.overall_avg_miss_latency::total 46674.596574                       # average overall miss latency
system.cpu3.dcache.blocked_cycles::no_mshrs            0                       # number of cycles access was blocked
system.cpu3.dcache.blocked_cycles::no_targets            0                       # number of cycles access was blocked
system.cpu3.dcache.blocked::no_mshrs                0                       # number of cycles access was blocked
system.cpu3.dcache.blocked::no_targets              0                       # number of cycles access was blocked
system.cpu3.dcache.avg_blocked_cycles::no_mshrs          nan                       # average number of cycles each access was blocked
system.cpu3.dcache.avg_blocked_cycles::no_targets          nan                       # average number of cycles each access was blocked
system.cpu3.dcache.fast_writes                      0                       # number of fast writes performed
system.cpu3.dcache.cache_copies                     0                       # number of cache copies performed
system.cpu3.dcache.writebacks::writebacks         9346                       # number of writebacks
system.cpu3.dcache.writebacks::total             9346                       # number of writebacks
system.cpu3.dcache.ReadReq_mshr_hits::switch_cpus3.data        35387                       # number of ReadReq MSHR hits
system.cpu3.dcache.ReadReq_mshr_hits::total        35387                       # number of ReadReq MSHR hits
system.cpu3.dcache.demand_mshr_hits::switch_cpus3.data        35387                       # number of demand (read+write) MSHR hits
system.cpu3.dcache.demand_mshr_hits::total        35387                       # number of demand (read+write) MSHR hits
system.cpu3.dcache.overall_mshr_hits::switch_cpus3.data        35387                       # number of overall MSHR hits
system.cpu3.dcache.overall_mshr_hits::total        35387                       # number of overall MSHR hits
system.cpu3.dcache.ReadReq_mshr_misses::switch_cpus3.data        34901                       # number of ReadReq MSHR misses
system.cpu3.dcache.ReadReq_mshr_misses::total        34901                       # number of ReadReq MSHR misses
system.cpu3.dcache.demand_mshr_misses::switch_cpus3.data        34901                       # number of demand (read+write) MSHR misses
system.cpu3.dcache.demand_mshr_misses::total        34901                       # number of demand (read+write) MSHR misses
system.cpu3.dcache.overall_mshr_misses::switch_cpus3.data        34901                       # number of overall MSHR misses
system.cpu3.dcache.overall_mshr_misses::total        34901                       # number of overall MSHR misses
system.cpu3.dcache.ReadReq_mshr_miss_latency::switch_cpus3.data   1237428747                       # number of ReadReq MSHR miss cycles
system.cpu3.dcache.ReadReq_mshr_miss_latency::total   1237428747                       # number of ReadReq MSHR miss cycles
system.cpu3.dcache.demand_mshr_miss_latency::switch_cpus3.data   1237428747                       # number of demand (read+write) MSHR miss cycles
system.cpu3.dcache.demand_mshr_miss_latency::total   1237428747                       # number of demand (read+write) MSHR miss cycles
system.cpu3.dcache.overall_mshr_miss_latency::switch_cpus3.data   1237428747                       # number of overall MSHR miss cycles
system.cpu3.dcache.overall_mshr_miss_latency::total   1237428747                       # number of overall MSHR miss cycles
system.cpu3.dcache.ReadReq_mshr_miss_rate::switch_cpus3.data     0.003166                       # mshr miss rate for ReadReq accesses
system.cpu3.dcache.ReadReq_mshr_miss_rate::total     0.003166                       # mshr miss rate for ReadReq accesses
system.cpu3.dcache.demand_mshr_miss_rate::switch_cpus3.data     0.001887                       # mshr miss rate for demand accesses
system.cpu3.dcache.demand_mshr_miss_rate::total     0.001887                       # mshr miss rate for demand accesses
system.cpu3.dcache.overall_mshr_miss_rate::switch_cpus3.data     0.001887                       # mshr miss rate for overall accesses
system.cpu3.dcache.overall_mshr_miss_rate::total     0.001887                       # mshr miss rate for overall accesses
system.cpu3.dcache.ReadReq_avg_mshr_miss_latency::switch_cpus3.data 35455.395175                       # average ReadReq mshr miss latency
system.cpu3.dcache.ReadReq_avg_mshr_miss_latency::total 35455.395175                       # average ReadReq mshr miss latency
system.cpu3.dcache.demand_avg_mshr_miss_latency::switch_cpus3.data 35455.395175                       # average overall mshr miss latency
system.cpu3.dcache.demand_avg_mshr_miss_latency::total 35455.395175                       # average overall mshr miss latency
system.cpu3.dcache.overall_avg_mshr_miss_latency::switch_cpus3.data 35455.395175                       # average overall mshr miss latency
system.cpu3.dcache.overall_avg_mshr_miss_latency::total 35455.395175                       # average overall mshr miss latency
system.cpu3.dcache.no_allocate_misses               0                       # Number of misses that were no-allocate

---------- End Simulation Statistics   ----------
