
---------- Begin Simulation Statistics ----------
sim_seconds                                  0.117884                       # Number of seconds simulated
sim_ticks                                117883914246                       # Number of ticks simulated
final_tick                               687715207380                       # Number of ticks from beginning of simulation (restored from checkpoints and never reset)
sim_freq                                 1000000000000                       # Frequency of simulated ticks
host_inst_rate                                 193644                       # Simulator instruction rate (inst/s)
host_op_rate                                   248964                       # Simulator op (including micro ops) rate (op/s)
host_tick_rate                                6528437                       # Simulator tick rate (ticks/s)
host_mem_usage                               16912860                       # Number of bytes of host memory used
host_seconds                                 18056.99                       # Real time elapsed on the host
sim_insts                                  3496625390                       # Number of instructions simulated
sim_ops                                    4495538916                       # Number of ops (including micro ops) simulated
system.physmem.bytes_read::switch_cpus0.inst         1792                       # Number of bytes read from this memory
system.physmem.bytes_read::switch_cpus0.data      1654272                       # Number of bytes read from this memory
system.physmem.bytes_read::switch_cpus1.inst         1664                       # Number of bytes read from this memory
system.physmem.bytes_read::switch_cpus1.data      1264000                       # Number of bytes read from this memory
system.physmem.bytes_read::switch_cpus2.inst         2432                       # Number of bytes read from this memory
system.physmem.bytes_read::switch_cpus2.data       554368                       # Number of bytes read from this memory
system.physmem.bytes_read::total              3478528                       # Number of bytes read from this memory
system.physmem.bytes_inst_read::switch_cpus0.inst         1792                       # Number of instructions bytes read from this memory
system.physmem.bytes_inst_read::switch_cpus1.inst         1664                       # Number of instructions bytes read from this memory
system.physmem.bytes_inst_read::switch_cpus2.inst         2432                       # Number of instructions bytes read from this memory
system.physmem.bytes_inst_read::total            5888                       # Number of instructions bytes read from this memory
system.physmem.bytes_written::writebacks      1475456                       # Number of bytes written to this memory
system.physmem.bytes_written::total           1475456                       # Number of bytes written to this memory
system.physmem.num_reads::switch_cpus0.inst           14                       # Number of read requests responded to by this memory
system.physmem.num_reads::switch_cpus0.data        12924                       # Number of read requests responded to by this memory
system.physmem.num_reads::switch_cpus1.inst           13                       # Number of read requests responded to by this memory
system.physmem.num_reads::switch_cpus1.data         9875                       # Number of read requests responded to by this memory
system.physmem.num_reads::switch_cpus2.inst           19                       # Number of read requests responded to by this memory
system.physmem.num_reads::switch_cpus2.data         4331                       # Number of read requests responded to by this memory
system.physmem.num_reads::total                 27176                       # Number of read requests responded to by this memory
system.physmem.num_writes::writebacks           11527                       # Number of write requests responded to by this memory
system.physmem.num_writes::functional               0                       # Number of write requests responded to by this memory
system.physmem.num_writes::interrupt                0                       # Number of write requests responded to by this memory
system.physmem.num_writes::switch_cpus0.dtb.walker            0                       # Number of write requests responded to by this memory
system.physmem.num_writes::switch_cpus0.itb.walker            0                       # Number of write requests responded to by this memory
system.physmem.num_writes::switch_cpus0.inst            0                       # Number of write requests responded to by this memory
system.physmem.num_writes::switch_cpus0.data            0                       # Number of write requests responded to by this memory
system.physmem.num_writes::switch_cpus1.dtb.walker            0                       # Number of write requests responded to by this memory
system.physmem.num_writes::switch_cpus1.itb.walker            0                       # Number of write requests responded to by this memory
system.physmem.num_writes::switch_cpus1.inst            0                       # Number of write requests responded to by this memory
system.physmem.num_writes::switch_cpus1.data            0                       # Number of write requests responded to by this memory
system.physmem.num_writes::switch_cpus2.dtb.walker            0                       # Number of write requests responded to by this memory
system.physmem.num_writes::switch_cpus2.itb.walker            0                       # Number of write requests responded to by this memory
system.physmem.num_writes::switch_cpus2.inst            0                       # Number of write requests responded to by this memory
system.physmem.num_writes::switch_cpus2.data            0                       # Number of write requests responded to by this memory
system.physmem.num_writes::cpu0.dtb.walker            0                       # Number of write requests responded to by this memory
system.physmem.num_writes::cpu0.itb.walker            0                       # Number of write requests responded to by this memory
system.physmem.num_writes::cpu0.inst                0                       # Number of write requests responded to by this memory
system.physmem.num_writes::cpu0.data                0                       # Number of write requests responded to by this memory
system.physmem.num_writes::cpu1.dtb.walker            0                       # Number of write requests responded to by this memory
system.physmem.num_writes::cpu1.itb.walker            0                       # Number of write requests responded to by this memory
system.physmem.num_writes::cpu1.inst                0                       # Number of write requests responded to by this memory
system.physmem.num_writes::cpu1.data                0                       # Number of write requests responded to by this memory
system.physmem.num_writes::cpu2.dtb.walker            0                       # Number of write requests responded to by this memory
system.physmem.num_writes::cpu2.itb.walker            0                       # Number of write requests responded to by this memory
system.physmem.num_writes::cpu2.inst                0                       # Number of write requests responded to by this memory
system.physmem.num_writes::cpu2.data                0                       # Number of write requests responded to by this memory
system.physmem.num_writes::total                11527                       # Number of write requests responded to by this memory
system.physmem.bw_read::switch_cpus0.inst        15201                       # Total read bandwidth from this memory (bytes/s)
system.physmem.bw_read::switch_cpus0.data     14033060                       # Total read bandwidth from this memory (bytes/s)
system.physmem.bw_read::switch_cpus1.inst        14116                       # Total read bandwidth from this memory (bytes/s)
system.physmem.bw_read::switch_cpus1.data     10722413                       # Total read bandwidth from this memory (bytes/s)
system.physmem.bw_read::switch_cpus2.inst        20630                       # Total read bandwidth from this memory (bytes/s)
system.physmem.bw_read::switch_cpus2.data      4702660                       # Total read bandwidth from this memory (bytes/s)
system.physmem.bw_read::total                29508080                       # Total read bandwidth from this memory (bytes/s)
system.physmem.bw_inst_read::switch_cpus0.inst        15201                       # Instruction read bandwidth from this memory (bytes/s)
system.physmem.bw_inst_read::switch_cpus1.inst        14116                       # Instruction read bandwidth from this memory (bytes/s)
system.physmem.bw_inst_read::switch_cpus2.inst        20630                       # Instruction read bandwidth from this memory (bytes/s)
system.physmem.bw_inst_read::total              49947                       # Instruction read bandwidth from this memory (bytes/s)
system.physmem.bw_write::writebacks          12516178                       # Write bandwidth from this memory (bytes/s)
system.physmem.bw_write::total               12516178                       # Write bandwidth from this memory (bytes/s)
system.physmem.bw_total::writebacks          12516178                       # Total bandwidth to/from this memory (bytes/s)
system.physmem.bw_total::switch_cpus0.inst        15201                       # Total bandwidth to/from this memory (bytes/s)
system.physmem.bw_total::switch_cpus0.data     14033060                       # Total bandwidth to/from this memory (bytes/s)
system.physmem.bw_total::switch_cpus1.inst        14116                       # Total bandwidth to/from this memory (bytes/s)
system.physmem.bw_total::switch_cpus1.data     10722413                       # Total bandwidth to/from this memory (bytes/s)
system.physmem.bw_total::switch_cpus2.inst        20630                       # Total bandwidth to/from this memory (bytes/s)
system.physmem.bw_total::switch_cpus2.data      4702660                       # Total bandwidth to/from this memory (bytes/s)
system.physmem.bw_total::total               42024258                       # Total bandwidth to/from this memory (bytes/s)
system.switch_cpus0.dtb.inst_hits                   0                       # ITB inst hits
system.switch_cpus0.dtb.inst_misses                 0                       # ITB inst misses
system.switch_cpus0.dtb.read_hits                   0                       # DTB read hits
system.switch_cpus0.dtb.read_misses                 0                       # DTB read misses
system.switch_cpus0.dtb.write_hits                  0                       # DTB write hits
system.switch_cpus0.dtb.write_misses                0                       # DTB write misses
system.switch_cpus0.dtb.flush_tlb                   0                       # Number of times complete TLB was flushed
system.switch_cpus0.dtb.flush_tlb_mva               0                       # Number of times TLB was flushed by MVA
system.switch_cpus0.dtb.flush_tlb_mva_asid            0                       # Number of times TLB was flushed by MVA & ASID
system.switch_cpus0.dtb.flush_tlb_asid              0                       # Number of times TLB was flushed by ASID
system.switch_cpus0.dtb.flush_entries               0                       # Number of entries that have been flushed from TLB
system.switch_cpus0.dtb.align_faults                0                       # Number of TLB faults due to alignment restrictions
system.switch_cpus0.dtb.prefetch_faults             0                       # Number of TLB faults due to prefetch
system.switch_cpus0.dtb.domain_faults               0                       # Number of TLB faults due to domain restrictions
system.switch_cpus0.dtb.perms_faults                0                       # Number of TLB faults due to permissions restrictions
system.switch_cpus0.dtb.read_accesses               0                       # DTB read accesses
system.switch_cpus0.dtb.write_accesses              0                       # DTB write accesses
system.switch_cpus0.dtb.inst_accesses               0                       # ITB inst accesses
system.switch_cpus0.dtb.hits                        0                       # DTB hits
system.switch_cpus0.dtb.misses                      0                       # DTB misses
system.switch_cpus0.dtb.accesses                    0                       # DTB accesses
system.switch_cpus0.itb.inst_hits                   0                       # ITB inst hits
system.switch_cpus0.itb.inst_misses                 0                       # ITB inst misses
system.switch_cpus0.itb.read_hits                   0                       # DTB read hits
system.switch_cpus0.itb.read_misses                 0                       # DTB read misses
system.switch_cpus0.itb.write_hits                  0                       # DTB write hits
system.switch_cpus0.itb.write_misses                0                       # DTB write misses
system.switch_cpus0.itb.flush_tlb                   0                       # Number of times complete TLB was flushed
system.switch_cpus0.itb.flush_tlb_mva               0                       # Number of times TLB was flushed by MVA
system.switch_cpus0.itb.flush_tlb_mva_asid            0                       # Number of times TLB was flushed by MVA & ASID
system.switch_cpus0.itb.flush_tlb_asid              0                       # Number of times TLB was flushed by ASID
system.switch_cpus0.itb.flush_entries               0                       # Number of entries that have been flushed from TLB
system.switch_cpus0.itb.align_faults                0                       # Number of TLB faults due to alignment restrictions
system.switch_cpus0.itb.prefetch_faults             0                       # Number of TLB faults due to prefetch
system.switch_cpus0.itb.domain_faults               0                       # Number of TLB faults due to domain restrictions
system.switch_cpus0.itb.perms_faults                0                       # Number of TLB faults due to permissions restrictions
system.switch_cpus0.itb.read_accesses               0                       # DTB read accesses
system.switch_cpus0.itb.write_accesses              0                       # DTB write accesses
system.switch_cpus0.itb.inst_accesses               0                       # ITB inst accesses
system.switch_cpus0.itb.hits                        0                       # DTB hits
system.switch_cpus0.itb.misses                      0                       # DTB misses
system.switch_cpus0.itb.accesses                    0                       # DTB accesses
system.cpu0.workload.num_syscalls                   0                       # Number of system calls
system.switch_cpus0.numCycles               282695239                       # number of cpu cycles simulated
system.switch_cpus0.numWorkItemsStarted             0                       # number of work items this cpu started
system.switch_cpus0.numWorkItemsCompleted            0                       # number of work items this cpu completed
system.switch_cpus0.BPredUnit.lookups        21114243                       # Number of BP lookups
system.switch_cpus0.BPredUnit.condPredicted     18751486                       # Number of conditional branches predicted
system.switch_cpus0.BPredUnit.condIncorrect      1828841                       # Number of conditional branches incorrect
system.switch_cpus0.BPredUnit.BTBLookups     11098698                       # Number of BTB lookups
system.switch_cpus0.BPredUnit.BTBHits        10810941                       # Number of BTB hits
system.switch_cpus0.BPredUnit.BTBCorrect            0                       # Number of correct BTB predictions (this stat may not work properly.
system.switch_cpus0.BPredUnit.usedRAS         1340387                       # Number of times the RAS was used to get a target.
system.switch_cpus0.BPredUnit.RASInCorrect        52574                       # Number of incorrect RAS predictions.
system.switch_cpus0.fetch.icacheStallCycles    227868257                       # Number of cycles fetch is stalled on an Icache miss
system.switch_cpus0.fetch.Insts             119572533                       # Number of instructions fetch has processed
system.switch_cpus0.fetch.Branches           21114243                       # Number of branches that fetch encountered
system.switch_cpus0.fetch.predictedBranches     12151328                       # Number of branches that fetch has predicted taken
system.switch_cpus0.fetch.Cycles             24172930                       # Number of cycles fetch has run and was not squashing or blocked
system.switch_cpus0.fetch.SquashCycles        5591221                       # Number of cycles fetch has spent squashing
system.switch_cpus0.fetch.BlockedCycles       2396250                       # Number of cycles fetch has spent blocked
system.switch_cpus0.fetch.PendingTrapStallCycles           23                       # Number of stall cycles due to pending traps
system.switch_cpus0.fetch.CacheLines         13946857                       # Number of cache lines fetched
system.switch_cpus0.fetch.IcacheSquashes      1822359                       # Number of outstanding Icache misses that were squashed
system.switch_cpus0.fetch.rateDist::samples    258190370                       # Number of instructions fetched each cycle (Total)
system.switch_cpus0.fetch.rateDist::mean     0.521651                       # Number of instructions fetched each cycle (Total)
system.switch_cpus0.fetch.rateDist::stdev     1.771077                       # Number of instructions fetched each cycle (Total)
system.switch_cpus0.fetch.rateDist::underflows            0      0.00%      0.00% # Number of instructions fetched each cycle (Total)
system.switch_cpus0.fetch.rateDist::0       234017440     90.64%     90.64% # Number of instructions fetched each cycle (Total)
system.switch_cpus0.fetch.rateDist::1         1097454      0.43%     91.06% # Number of instructions fetched each cycle (Total)
system.switch_cpus0.fetch.rateDist::2         2036850      0.79%     91.85% # Number of instructions fetched each cycle (Total)
system.switch_cpus0.fetch.rateDist::3         1765512      0.68%     92.54% # Number of instructions fetched each cycle (Total)
system.switch_cpus0.fetch.rateDist::4         3577330      1.39%     93.92% # Number of instructions fetched each cycle (Total)
system.switch_cpus0.fetch.rateDist::5         4334506      1.68%     95.60% # Number of instructions fetched each cycle (Total)
system.switch_cpus0.fetch.rateDist::6         1044412      0.40%     96.00% # Number of instructions fetched each cycle (Total)
system.switch_cpus0.fetch.rateDist::7          565610      0.22%     96.22% # Number of instructions fetched each cycle (Total)
system.switch_cpus0.fetch.rateDist::8         9751256      3.78%    100.00% # Number of instructions fetched each cycle (Total)
system.switch_cpus0.fetch.rateDist::overflows            0      0.00%    100.00% # Number of instructions fetched each cycle (Total)
system.switch_cpus0.fetch.rateDist::min_value            0                       # Number of instructions fetched each cycle (Total)
system.switch_cpus0.fetch.rateDist::max_value            8                       # Number of instructions fetched each cycle (Total)
system.switch_cpus0.fetch.rateDist::total    258190370                       # Number of instructions fetched each cycle (Total)
system.switch_cpus0.fetch.branchRate         0.074689                       # Number of branch fetches per cycle
system.switch_cpus0.fetch.rate               0.422973                       # Number of inst fetches per cycle
system.switch_cpus0.decode.IdleCycles       226209197                       # Number of cycles decode is idle
system.switch_cpus0.decode.BlockedCycles      4072815                       # Number of cycles decode is blocked
system.switch_cpus0.decode.RunCycles         24135221                       # Number of cycles decode is running
system.switch_cpus0.decode.UnblockCycles        25058                       # Number of cycles decode is unblocking
system.switch_cpus0.decode.SquashCycles       3748078                       # Number of cycles decode is squashing
system.switch_cpus0.decode.BranchResolved      2060172                       # Number of times decode resolved a branch
system.switch_cpus0.decode.BranchMispred         4832                       # Number of times decode detected a branch misprediction
system.switch_cpus0.decode.DecodedInsts     134606879                       # Number of instructions handled by decode
system.switch_cpus0.decode.SquashedInsts         1334                       # Number of squashed instructions handled by decode
system.switch_cpus0.rename.SquashCycles       3748078                       # Number of cycles rename is squashing
system.switch_cpus0.rename.IdleCycles       226480097                       # Number of cycles rename is idle
system.switch_cpus0.rename.BlockCycles        1988686                       # Number of cycles rename is blocking
system.switch_cpus0.rename.serializeStallCycles      1271512                       # count of cycles rename stalled for serializing inst
system.switch_cpus0.rename.RunCycles         23878863                       # Number of cycles rename is running
system.switch_cpus0.rename.UnblockCycles       823132                       # Number of cycles rename is unblocking
system.switch_cpus0.rename.RenamedInsts     134494610                       # Number of instructions processed by rename
system.switch_cpus0.rename.ROBFullEvents            8                       # Number of times rename has blocked due to ROB full
system.switch_cpus0.rename.IQFullEvents         87555                       # Number of times rename has blocked due to IQ full
system.switch_cpus0.rename.LSQFullEvents       505919                       # Number of times rename has blocked due to LSQ full
system.switch_cpus0.rename.RenamedOperands    177542063                       # Number of destination operands rename has renamed
system.switch_cpus0.rename.RenameLookups    608105839                       # Number of register rename lookups that rename has made
system.switch_cpus0.rename.int_rename_lookups    608105839                       # Number of integer rename lookups
system.switch_cpus0.rename.CommittedMaps    146711191                       # Number of HB maps that are committed
system.switch_cpus0.rename.UndoneMaps        30830864                       # Number of HB maps that are undone due to squashing
system.switch_cpus0.rename.serializingInsts        18453                       # count of serializing insts renamed
system.switch_cpus0.rename.tempSerializingInsts         9233                       # count of temporary serializing insts renamed
system.switch_cpus0.rename.skidInsts          2566701                       # count of insts added to the skid buffer
system.switch_cpus0.memDep0.insertedLoads     23438616                       # Number of loads inserted to the mem dependence unit.
system.switch_cpus0.memDep0.insertedStores      4143008                       # Number of stores inserted to the mem dependence unit.
system.switch_cpus0.memDep0.conflictingLoads        74937                       # Number of conflicting loads.
system.switch_cpus0.memDep0.conflictingStores       927006                       # Number of conflicting stores.
system.switch_cpus0.iq.iqInstsAdded         133991322                       # Number of instructions added to the IQ (excludes non-spec)
system.switch_cpus0.iq.iqNonSpecInstsAdded        18453                       # Number of non-speculative instructions added to the IQ
system.switch_cpus0.iq.iqInstsIssued        127235401                       # Number of instructions issued
system.switch_cpus0.iq.iqSquashedInstsIssued        80489                       # Number of squashed instructions issued
system.switch_cpus0.iq.iqSquashedInstsExamined     20287340                       # Number of squashed instructions iterated over during squash; mainly for profiling
system.switch_cpus0.iq.iqSquashedOperandsExamined     42652921                       # Number of squashed operands that are examined and possibly removed from graph
system.switch_cpus0.iq.iqSquashedNonSpecRemoved           13                       # Number of squashed non-spec instructions that were removed
system.switch_cpus0.iq.issued_per_cycle::samples    258190370                       # Number of insts issued each cycle
system.switch_cpus0.iq.issued_per_cycle::mean     0.492797                       # Number of insts issued each cycle
system.switch_cpus0.iq.issued_per_cycle::stdev     1.175859                       # Number of insts issued each cycle
system.switch_cpus0.iq.issued_per_cycle::underflows            0      0.00%      0.00% # Number of insts issued each cycle
system.switch_cpus0.iq.issued_per_cycle::0    203743001     78.91%     78.91% # Number of insts issued each cycle
system.switch_cpus0.iq.issued_per_cycle::1     22825848      8.84%     87.75% # Number of insts issued each cycle
system.switch_cpus0.iq.issued_per_cycle::2     11702495      4.53%     92.29% # Number of insts issued each cycle
system.switch_cpus0.iq.issued_per_cycle::3      6744955      2.61%     94.90% # Number of insts issued each cycle
system.switch_cpus0.iq.issued_per_cycle::4      7500227      2.90%     97.80% # Number of insts issued each cycle
system.switch_cpus0.iq.issued_per_cycle::5      3758053      1.46%     99.26% # Number of insts issued each cycle
system.switch_cpus0.iq.issued_per_cycle::6      1498891      0.58%     99.84% # Number of insts issued each cycle
system.switch_cpus0.iq.issued_per_cycle::7       350021      0.14%     99.97% # Number of insts issued each cycle
system.switch_cpus0.iq.issued_per_cycle::8        66879      0.03%    100.00% # Number of insts issued each cycle
system.switch_cpus0.iq.issued_per_cycle::overflows            0      0.00%    100.00% # Number of insts issued each cycle
system.switch_cpus0.iq.issued_per_cycle::min_value            0                       # Number of insts issued each cycle
system.switch_cpus0.iq.issued_per_cycle::max_value            8                       # Number of insts issued each cycle
system.switch_cpus0.iq.issued_per_cycle::total    258190370                       # Number of insts issued each cycle
system.switch_cpus0.iq.fu_full::No_OpClass            0      0.00%      0.00% # attempts to use FU when none available
system.switch_cpus0.iq.fu_full::IntAlu         233650     47.84%     47.84% # attempts to use FU when none available
system.switch_cpus0.iq.fu_full::IntMult             0      0.00%     47.84% # attempts to use FU when none available
system.switch_cpus0.iq.fu_full::IntDiv              0      0.00%     47.84% # attempts to use FU when none available
system.switch_cpus0.iq.fu_full::FloatAdd            0      0.00%     47.84% # attempts to use FU when none available
system.switch_cpus0.iq.fu_full::FloatCmp            0      0.00%     47.84% # attempts to use FU when none available
system.switch_cpus0.iq.fu_full::FloatCvt            0      0.00%     47.84% # attempts to use FU when none available
system.switch_cpus0.iq.fu_full::FloatMult            0      0.00%     47.84% # attempts to use FU when none available
system.switch_cpus0.iq.fu_full::FloatDiv            0      0.00%     47.84% # attempts to use FU when none available
system.switch_cpus0.iq.fu_full::FloatSqrt            0      0.00%     47.84% # attempts to use FU when none available
system.switch_cpus0.iq.fu_full::SimdAdd             0      0.00%     47.84% # attempts to use FU when none available
system.switch_cpus0.iq.fu_full::SimdAddAcc            0      0.00%     47.84% # attempts to use FU when none available
system.switch_cpus0.iq.fu_full::SimdAlu             0      0.00%     47.84% # attempts to use FU when none available
system.switch_cpus0.iq.fu_full::SimdCmp             0      0.00%     47.84% # attempts to use FU when none available
system.switch_cpus0.iq.fu_full::SimdCvt             0      0.00%     47.84% # attempts to use FU when none available
system.switch_cpus0.iq.fu_full::SimdMisc            0      0.00%     47.84% # attempts to use FU when none available
system.switch_cpus0.iq.fu_full::SimdMult            0      0.00%     47.84% # attempts to use FU when none available
system.switch_cpus0.iq.fu_full::SimdMultAcc            0      0.00%     47.84% # attempts to use FU when none available
system.switch_cpus0.iq.fu_full::SimdShift            0      0.00%     47.84% # attempts to use FU when none available
system.switch_cpus0.iq.fu_full::SimdShiftAcc            0      0.00%     47.84% # attempts to use FU when none available
system.switch_cpus0.iq.fu_full::SimdSqrt            0      0.00%     47.84% # attempts to use FU when none available
system.switch_cpus0.iq.fu_full::SimdFloatAdd            0      0.00%     47.84% # attempts to use FU when none available
system.switch_cpus0.iq.fu_full::SimdFloatAlu            0      0.00%     47.84% # attempts to use FU when none available
system.switch_cpus0.iq.fu_full::SimdFloatCmp            0      0.00%     47.84% # attempts to use FU when none available
system.switch_cpus0.iq.fu_full::SimdFloatCvt            0      0.00%     47.84% # attempts to use FU when none available
system.switch_cpus0.iq.fu_full::SimdFloatDiv            0      0.00%     47.84% # attempts to use FU when none available
system.switch_cpus0.iq.fu_full::SimdFloatMisc            0      0.00%     47.84% # attempts to use FU when none available
system.switch_cpus0.iq.fu_full::SimdFloatMult            0      0.00%     47.84% # attempts to use FU when none available
system.switch_cpus0.iq.fu_full::SimdFloatMultAcc            0      0.00%     47.84% # attempts to use FU when none available
system.switch_cpus0.iq.fu_full::SimdFloatSqrt            0      0.00%     47.84% # attempts to use FU when none available
system.switch_cpus0.iq.fu_full::MemRead        179794     36.81%     84.65% # attempts to use FU when none available
system.switch_cpus0.iq.fu_full::MemWrite        74972     15.35%    100.00% # attempts to use FU when none available
system.switch_cpus0.iq.fu_full::IprAccess            0      0.00%    100.00% # attempts to use FU when none available
system.switch_cpus0.iq.fu_full::InstPrefetch            0      0.00%    100.00% # attempts to use FU when none available
system.switch_cpus0.iq.FU_type_0::No_OpClass            0      0.00%      0.00% # Type of FU issued
system.switch_cpus0.iq.FU_type_0::IntAlu     99863391     78.49%     78.49% # Type of FU issued
system.switch_cpus0.iq.FU_type_0::IntMult      1005845      0.79%     79.28% # Type of FU issued
system.switch_cpus0.iq.FU_type_0::IntDiv            0      0.00%     79.28% # Type of FU issued
system.switch_cpus0.iq.FU_type_0::FloatAdd            0      0.00%     79.28% # Type of FU issued
system.switch_cpus0.iq.FU_type_0::FloatCmp            0      0.00%     79.28% # Type of FU issued
system.switch_cpus0.iq.FU_type_0::FloatCvt            0      0.00%     79.28% # Type of FU issued
system.switch_cpus0.iq.FU_type_0::FloatMult            0      0.00%     79.28% # Type of FU issued
system.switch_cpus0.iq.FU_type_0::FloatDiv            0      0.00%     79.28% # Type of FU issued
system.switch_cpus0.iq.FU_type_0::FloatSqrt            0      0.00%     79.28% # Type of FU issued
system.switch_cpus0.iq.FU_type_0::SimdAdd            0      0.00%     79.28% # Type of FU issued
system.switch_cpus0.iq.FU_type_0::SimdAddAcc            0      0.00%     79.28% # Type of FU issued
system.switch_cpus0.iq.FU_type_0::SimdAlu            0      0.00%     79.28% # Type of FU issued
system.switch_cpus0.iq.FU_type_0::SimdCmp            0      0.00%     79.28% # Type of FU issued
system.switch_cpus0.iq.FU_type_0::SimdCvt            0      0.00%     79.28% # Type of FU issued
system.switch_cpus0.iq.FU_type_0::SimdMisc            0      0.00%     79.28% # Type of FU issued
system.switch_cpus0.iq.FU_type_0::SimdMult            0      0.00%     79.28% # Type of FU issued
system.switch_cpus0.iq.FU_type_0::SimdMultAcc            0      0.00%     79.28% # Type of FU issued
system.switch_cpus0.iq.FU_type_0::SimdShift            0      0.00%     79.28% # Type of FU issued
system.switch_cpus0.iq.FU_type_0::SimdShiftAcc            0      0.00%     79.28% # Type of FU issued
system.switch_cpus0.iq.FU_type_0::SimdSqrt            0      0.00%     79.28% # Type of FU issued
system.switch_cpus0.iq.FU_type_0::SimdFloatAdd            0      0.00%     79.28% # Type of FU issued
system.switch_cpus0.iq.FU_type_0::SimdFloatAlu            0      0.00%     79.28% # Type of FU issued
system.switch_cpus0.iq.FU_type_0::SimdFloatCmp            0      0.00%     79.28% # Type of FU issued
system.switch_cpus0.iq.FU_type_0::SimdFloatCvt            0      0.00%     79.28% # Type of FU issued
system.switch_cpus0.iq.FU_type_0::SimdFloatDiv            0      0.00%     79.28% # Type of FU issued
system.switch_cpus0.iq.FU_type_0::SimdFloatMisc         9220      0.01%     79.28% # Type of FU issued
system.switch_cpus0.iq.FU_type_0::SimdFloatMult            0      0.00%     79.28% # Type of FU issued
system.switch_cpus0.iq.FU_type_0::SimdFloatMultAcc            0      0.00%     79.28% # Type of FU issued
system.switch_cpus0.iq.FU_type_0::SimdFloatSqrt            0      0.00%     79.28% # Type of FU issued
system.switch_cpus0.iq.FU_type_0::MemRead     22235133     17.48%     96.76% # Type of FU issued
system.switch_cpus0.iq.FU_type_0::MemWrite      4121812      3.24%    100.00% # Type of FU issued
system.switch_cpus0.iq.FU_type_0::IprAccess            0      0.00%    100.00% # Type of FU issued
system.switch_cpus0.iq.FU_type_0::InstPrefetch            0      0.00%    100.00% # Type of FU issued
system.switch_cpus0.iq.FU_type_0::total     127235401                       # Type of FU issued
system.switch_cpus0.iq.rate                  0.450080                       # Inst issue rate
system.switch_cpus0.iq.fu_busy_cnt             488416                       # FU busy when requested
system.switch_cpus0.iq.fu_busy_rate          0.003839                       # FU busy rate (busy events/executed inst)
system.switch_cpus0.iq.int_inst_queue_reads    513230077                       # Number of integer instruction queue reads
system.switch_cpus0.iq.int_inst_queue_writes    154297412                       # Number of integer instruction queue writes
system.switch_cpus0.iq.int_inst_queue_wakeup_accesses    124280575                       # Number of integer instruction queue wakeup accesses
system.switch_cpus0.iq.fp_inst_queue_reads            0                       # Number of floating instruction queue reads
system.switch_cpus0.iq.fp_inst_queue_writes            0                       # Number of floating instruction queue writes
system.switch_cpus0.iq.fp_inst_queue_wakeup_accesses            0                       # Number of floating instruction queue wakeup accesses
system.switch_cpus0.iq.int_alu_accesses     127723817                       # Number of integer alu accesses
system.switch_cpus0.iq.fp_alu_accesses              0                       # Number of floating point alu accesses
system.switch_cpus0.iew.lsq.thread0.forwLoads       225659                       # Number of loads that had data forwarded from stores
system.switch_cpus0.iew.lsq.thread0.invAddrLoads            0                       # Number of loads ignored due to an invalid address
system.switch_cpus0.iew.lsq.thread0.squashedLoads      3912807                       # Number of loads squashed
system.switch_cpus0.iew.lsq.thread0.ignoredResponses          229                       # Number of memory responses ignored because the instruction is squashed
system.switch_cpus0.iew.lsq.thread0.memOrderViolation          297                       # Number of memory ordering violations
system.switch_cpus0.iew.lsq.thread0.squashedStores       114100                       # Number of stores squashed
system.switch_cpus0.iew.lsq.thread0.invAddrSwpfs            0                       # Number of software prefetches ignored due to an invalid address
system.switch_cpus0.iew.lsq.thread0.blockedLoads            0                       # Number of blocked loads due to partial load-store forwarding
system.switch_cpus0.iew.lsq.thread0.rescheduledLoads            0                       # Number of loads that were rescheduled
system.switch_cpus0.iew.lsq.thread0.cacheBlocked            0                       # Number of times an access to memory failed due to the cache being blocked
system.switch_cpus0.iew.iewIdleCycles               0                       # Number of cycles IEW is idle
system.switch_cpus0.iew.iewSquashCycles       3748078                       # Number of cycles IEW is squashing
system.switch_cpus0.iew.iewBlockCycles        1406203                       # Number of cycles IEW is blocking
system.switch_cpus0.iew.iewUnblockCycles        64786                       # Number of cycles IEW is unblocking
system.switch_cpus0.iew.iewDispatchedInsts    134009776                       # Number of instructions dispatched to IQ
system.switch_cpus0.iew.iewDispSquashedInsts         5926                       # Number of squashed instructions skipped by dispatch
system.switch_cpus0.iew.iewDispLoadInsts     23438616                       # Number of dispatched load instructions
system.switch_cpus0.iew.iewDispStoreInsts      4143008                       # Number of dispatched store instructions
system.switch_cpus0.iew.iewDispNonSpecInsts         9233                       # Number of dispatched non-speculative instructions
system.switch_cpus0.iew.iewIQFullEvents         37370                       # Number of times the IQ has become full, causing a stall
system.switch_cpus0.iew.iewLSQFullEvents          535                       # Number of times the LSQ has become full, causing a stall
system.switch_cpus0.iew.memOrderViolationEvents          297                       # Number of memory order violations
system.switch_cpus0.iew.predictedTakenIncorrect       821810                       # Number of branches that were predicted taken incorrectly
system.switch_cpus0.iew.predictedNotTakenIncorrect      1103130                       # Number of branches that were predicted not taken incorrectly
system.switch_cpus0.iew.branchMispredicts      1924940                       # Number of branch mispredicts detected at execute
system.switch_cpus0.iew.iewExecutedInsts    126116678                       # Number of executed instructions
system.switch_cpus0.iew.iewExecLoadInsts     21959563                       # Number of load instructions executed
system.switch_cpus0.iew.iewExecSquashedInsts      1118723                       # Number of squashed instructions skipped in execute
system.switch_cpus0.iew.exec_swp                    0                       # number of swp insts executed
system.switch_cpus0.iew.exec_nop                    1                       # number of nop insts executed
system.switch_cpus0.iew.exec_refs            26081318                       # number of memory reference insts executed
system.switch_cpus0.iew.exec_branches        19491370                       # Number of branches executed
system.switch_cpus0.iew.exec_stores           4121755                       # Number of stores executed
system.switch_cpus0.iew.exec_rate            0.446122                       # Inst execution rate
system.switch_cpus0.iew.wb_sent             124316064                       # cumulative count of insts sent to commit
system.switch_cpus0.iew.wb_count            124280575                       # cumulative count of insts written-back
system.switch_cpus0.iew.wb_producers         71082257                       # num instructions producing a value
system.switch_cpus0.iew.wb_consumers        164028681                       # num instructions consuming a value
system.switch_cpus0.iew.wb_penalized                0                       # number of instrctions required to write to 'other' IQ
system.switch_cpus0.iew.wb_rate              0.439627                       # insts written-back per cycle
system.switch_cpus0.iew.wb_fanout            0.433353                       # average fanout of values written-back
system.switch_cpus0.iew.wb_penalized_rate            0                       # fraction of instructions written-back that wrote to 'other' IQ
system.switch_cpus0.commit.commitCommittedInsts    100000007                       # The number of committed instructions
system.switch_cpus0.commit.commitCommittedOps    112649212                       # The number of committed instructions
system.switch_cpus0.commit.commitSquashedInsts     21363528                       # The number of squashed insts skipped by commit
system.switch_cpus0.commit.commitNonSpecStalls        18440                       # The number of times commit has been forced to stall to communicate backwards
system.switch_cpus0.commit.branchMispredicts      1833248                       # The number of times a branch was mispredicted
system.switch_cpus0.commit.committed_per_cycle::samples    254442292                       # Number of insts commited each cycle
system.switch_cpus0.commit.committed_per_cycle::mean     0.442730                       # Number of insts commited each cycle
system.switch_cpus0.commit.committed_per_cycle::stdev     1.292522                       # Number of insts commited each cycle
system.switch_cpus0.commit.committed_per_cycle::underflows            0      0.00%      0.00% # Number of insts commited each cycle
system.switch_cpus0.commit.committed_per_cycle::0    212224914     83.41%     83.41% # Number of insts commited each cycle
system.switch_cpus0.commit.committed_per_cycle::1     15996299      6.29%     89.69% # Number of insts commited each cycle
system.switch_cpus0.commit.committed_per_cycle::2     12511671      4.92%     94.61% # Number of insts commited each cycle
system.switch_cpus0.commit.committed_per_cycle::3      2471038      0.97%     95.58% # Number of insts commited each cycle
system.switch_cpus0.commit.committed_per_cycle::4      3115148      1.22%     96.81% # Number of insts commited each cycle
system.switch_cpus0.commit.committed_per_cycle::5      1054606      0.41%     97.22% # Number of insts commited each cycle
system.switch_cpus0.commit.committed_per_cycle::6      4529040      1.78%     99.00% # Number of insts commited each cycle
system.switch_cpus0.commit.committed_per_cycle::7      1008013      0.40%     99.40% # Number of insts commited each cycle
system.switch_cpus0.commit.committed_per_cycle::8      1531563      0.60%    100.00% # Number of insts commited each cycle
system.switch_cpus0.commit.committed_per_cycle::overflows            0      0.00%    100.00% # Number of insts commited each cycle
system.switch_cpus0.commit.committed_per_cycle::min_value            0                       # Number of insts commited each cycle
system.switch_cpus0.commit.committed_per_cycle::max_value            8                       # Number of insts commited each cycle
system.switch_cpus0.commit.committed_per_cycle::total    254442292                       # Number of insts commited each cycle
system.switch_cpus0.commit.committedInsts    100000007                       # Number of instructions committed
system.switch_cpus0.commit.committedOps     112649212                       # Number of ops (including micro ops) committed
system.switch_cpus0.commit.swp_count                0                       # Number of s/w prefetches committed
system.switch_cpus0.commit.refs              23554717                       # Number of memory references committed
system.switch_cpus0.commit.loads             19525809                       # Number of loads committed
system.switch_cpus0.commit.membars               9220                       # Number of memory barriers committed
system.switch_cpus0.commit.branches          17774062                       # Number of branches committed
system.switch_cpus0.commit.fp_insts                 0                       # Number of committed floating point instructions.
system.switch_cpus0.commit.int_insts         97983637                       # Number of committed integer instructions.
system.switch_cpus0.commit.function_calls      1421934                       # Number of function calls committed.
system.switch_cpus0.commit.bw_lim_events      1531563                       # number cycles where commit BW limit reached
system.switch_cpus0.commit.bw_limited               0                       # number of insts not committed due to BW limits
system.switch_cpus0.rob.rob_reads           386923469                       # The number of ROB reads
system.switch_cpus0.rob.rob_writes          271773628                       # The number of ROB writes
system.switch_cpus0.timesIdled                6037410                       # Number of times that the entire CPU went into an idle state and unscheduled itself
system.switch_cpus0.idleCycles               24504869                       # Total number of cycles that the CPU has spent unscheduled due to idling
system.switch_cpus0.committedInsts          100000007                       # Number of Instructions Simulated
system.switch_cpus0.committedOps            112649212                       # Number of Ops (including micro ops) Simulated
system.switch_cpus0.committedInsts_total    100000007                       # Number of Instructions Simulated
system.switch_cpus0.cpi                      2.826952                       # CPI: Cycles Per Instruction
system.switch_cpus0.cpi_total                2.826952                       # CPI: Total CPI of All Threads
system.switch_cpus0.ipc                      0.353738                       # IPC: Instructions Per Cycle
system.switch_cpus0.ipc_total                0.353738                       # IPC: Total IPC of All Threads
system.switch_cpus0.int_regfile_reads       584019850                       # number of integer regfile reads
system.switch_cpus0.int_regfile_writes      162085381                       # number of integer regfile writes
system.switch_cpus0.misc_regfile_reads      142412100                       # number of misc regfile reads
system.switch_cpus0.misc_regfile_writes         18440                       # number of misc regfile writes
system.switch_cpus1.dtb.inst_hits                   0                       # ITB inst hits
system.switch_cpus1.dtb.inst_misses                 0                       # ITB inst misses
system.switch_cpus1.dtb.read_hits                   0                       # DTB read hits
system.switch_cpus1.dtb.read_misses                 0                       # DTB read misses
system.switch_cpus1.dtb.write_hits                  0                       # DTB write hits
system.switch_cpus1.dtb.write_misses                0                       # DTB write misses
system.switch_cpus1.dtb.flush_tlb                   0                       # Number of times complete TLB was flushed
system.switch_cpus1.dtb.flush_tlb_mva               0                       # Number of times TLB was flushed by MVA
system.switch_cpus1.dtb.flush_tlb_mva_asid            0                       # Number of times TLB was flushed by MVA & ASID
system.switch_cpus1.dtb.flush_tlb_asid              0                       # Number of times TLB was flushed by ASID
system.switch_cpus1.dtb.flush_entries               0                       # Number of entries that have been flushed from TLB
system.switch_cpus1.dtb.align_faults                0                       # Number of TLB faults due to alignment restrictions
system.switch_cpus1.dtb.prefetch_faults             0                       # Number of TLB faults due to prefetch
system.switch_cpus1.dtb.domain_faults               0                       # Number of TLB faults due to domain restrictions
system.switch_cpus1.dtb.perms_faults                0                       # Number of TLB faults due to permissions restrictions
system.switch_cpus1.dtb.read_accesses               0                       # DTB read accesses
system.switch_cpus1.dtb.write_accesses              0                       # DTB write accesses
system.switch_cpus1.dtb.inst_accesses               0                       # ITB inst accesses
system.switch_cpus1.dtb.hits                        0                       # DTB hits
system.switch_cpus1.dtb.misses                      0                       # DTB misses
system.switch_cpus1.dtb.accesses                    0                       # DTB accesses
system.switch_cpus1.itb.inst_hits                   0                       # ITB inst hits
system.switch_cpus1.itb.inst_misses                 0                       # ITB inst misses
system.switch_cpus1.itb.read_hits                   0                       # DTB read hits
system.switch_cpus1.itb.read_misses                 0                       # DTB read misses
system.switch_cpus1.itb.write_hits                  0                       # DTB write hits
system.switch_cpus1.itb.write_misses                0                       # DTB write misses
system.switch_cpus1.itb.flush_tlb                   0                       # Number of times complete TLB was flushed
system.switch_cpus1.itb.flush_tlb_mva               0                       # Number of times TLB was flushed by MVA
system.switch_cpus1.itb.flush_tlb_mva_asid            0                       # Number of times TLB was flushed by MVA & ASID
system.switch_cpus1.itb.flush_tlb_asid              0                       # Number of times TLB was flushed by ASID
system.switch_cpus1.itb.flush_entries               0                       # Number of entries that have been flushed from TLB
system.switch_cpus1.itb.align_faults                0                       # Number of TLB faults due to alignment restrictions
system.switch_cpus1.itb.prefetch_faults             0                       # Number of TLB faults due to prefetch
system.switch_cpus1.itb.domain_faults               0                       # Number of TLB faults due to domain restrictions
system.switch_cpus1.itb.perms_faults                0                       # Number of TLB faults due to permissions restrictions
system.switch_cpus1.itb.read_accesses               0                       # DTB read accesses
system.switch_cpus1.itb.write_accesses              0                       # DTB write accesses
system.switch_cpus1.itb.inst_accesses               0                       # ITB inst accesses
system.switch_cpus1.itb.hits                        0                       # DTB hits
system.switch_cpus1.itb.misses                      0                       # DTB misses
system.switch_cpus1.itb.accesses                    0                       # DTB accesses
system.cpu1.workload.num_syscalls                   0                       # Number of system calls
system.switch_cpus1.numCycles               282695239                       # number of cpu cycles simulated
system.switch_cpus1.numWorkItemsStarted             0                       # number of work items this cpu started
system.switch_cpus1.numWorkItemsCompleted            0                       # number of work items this cpu completed
system.switch_cpus1.BPredUnit.lookups        23141767                       # Number of BP lookups
system.switch_cpus1.BPredUnit.condPredicted     18917987                       # Number of conditional branches predicted
system.switch_cpus1.BPredUnit.condIncorrect      2252570                       # Number of conditional branches incorrect
system.switch_cpus1.BPredUnit.BTBLookups      9510179                       # Number of BTB lookups
system.switch_cpus1.BPredUnit.BTBHits         9088320                       # Number of BTB hits
system.switch_cpus1.BPredUnit.BTBCorrect            0                       # Number of correct BTB predictions (this stat may not work properly.
system.switch_cpus1.BPredUnit.usedRAS         2373523                       # Number of times the RAS was used to get a target.
system.switch_cpus1.BPredUnit.RASInCorrect       102366                       # Number of incorrect RAS predictions.
system.switch_cpus1.fetch.icacheStallCycles    222903110                       # Number of cycles fetch is stalled on an Icache miss
system.switch_cpus1.fetch.Insts             130021103                       # Number of instructions fetch has processed
system.switch_cpus1.fetch.Branches           23141767                       # Number of branches that fetch encountered
system.switch_cpus1.fetch.predictedBranches     11461843                       # Number of branches that fetch has predicted taken
system.switch_cpus1.fetch.Cycles             27087676                       # Number of cycles fetch has run and was not squashing or blocked
system.switch_cpus1.fetch.SquashCycles        6247726                       # Number of cycles fetch has spent squashing
system.switch_cpus1.fetch.BlockedCycles       5590819                       # Number of cycles fetch has spent blocked
system.switch_cpus1.fetch.PendingTrapStallCycles            6                       # Number of stall cycles due to pending traps
system.switch_cpus1.fetch.CacheLines         13653153                       # Number of cache lines fetched
system.switch_cpus1.fetch.IcacheSquashes      2254165                       # Number of outstanding Icache misses that were squashed
system.switch_cpus1.fetch.rateDist::samples    259539063                       # Number of instructions fetched each cycle (Total)
system.switch_cpus1.fetch.rateDist::mean     0.614295                       # Number of instructions fetched each cycle (Total)
system.switch_cpus1.fetch.rateDist::stdev     1.958017                       # Number of instructions fetched each cycle (Total)
system.switch_cpus1.fetch.rateDist::underflows            0      0.00%      0.00% # Number of instructions fetched each cycle (Total)
system.switch_cpus1.fetch.rateDist::0       232451387     89.56%     89.56% # Number of instructions fetched each cycle (Total)
system.switch_cpus1.fetch.rateDist::1         1300908      0.50%     90.06% # Number of instructions fetched each cycle (Total)
system.switch_cpus1.fetch.rateDist::2         1983903      0.76%     90.83% # Number of instructions fetched each cycle (Total)
system.switch_cpus1.fetch.rateDist::3         2710530      1.04%     91.87% # Number of instructions fetched each cycle (Total)
system.switch_cpus1.fetch.rateDist::4         2783797      1.07%     92.95% # Number of instructions fetched each cycle (Total)
system.switch_cpus1.fetch.rateDist::5         2326050      0.90%     93.84% # Number of instructions fetched each cycle (Total)
system.switch_cpus1.fetch.rateDist::6         1324173      0.51%     94.35% # Number of instructions fetched each cycle (Total)
system.switch_cpus1.fetch.rateDist::7         1943829      0.75%     95.10% # Number of instructions fetched each cycle (Total)
system.switch_cpus1.fetch.rateDist::8        12714486      4.90%    100.00% # Number of instructions fetched each cycle (Total)
system.switch_cpus1.fetch.rateDist::overflows            0      0.00%    100.00% # Number of instructions fetched each cycle (Total)
system.switch_cpus1.fetch.rateDist::min_value            0                       # Number of instructions fetched each cycle (Total)
system.switch_cpus1.fetch.rateDist::max_value            8                       # Number of instructions fetched each cycle (Total)
system.switch_cpus1.fetch.rateDist::total    259539063                       # Number of instructions fetched each cycle (Total)
system.switch_cpus1.fetch.branchRate         0.081861                       # Number of branch fetches per cycle
system.switch_cpus1.fetch.rate               0.459934                       # Number of inst fetches per cycle
system.switch_cpus1.decode.IdleCycles       220356226                       # Number of cycles decode is idle
system.switch_cpus1.decode.BlockedCycles      8158528                       # Number of cycles decode is blocked
system.switch_cpus1.decode.RunCycles         27015887                       # Number of cycles decode is running
system.switch_cpus1.decode.UnblockCycles        51200                       # Number of cycles decode is unblocking
system.switch_cpus1.decode.SquashCycles       3957219                       # Number of cycles decode is squashing
system.switch_cpus1.decode.BranchResolved      3821409                       # Number of times decode resolved a branch
system.switch_cpus1.decode.BranchMispred          233                       # Number of times decode detected a branch misprediction
system.switch_cpus1.decode.DecodedInsts     159303083                       # Number of instructions handled by decode
system.switch_cpus1.decode.SquashedInsts         1303                       # Number of squashed instructions handled by decode
system.switch_cpus1.rename.SquashCycles       3957219                       # Number of cycles rename is squashing
system.switch_cpus1.rename.IdleCycles       220979549                       # Number of cycles rename is idle
system.switch_cpus1.rename.BlockCycles        1513366                       # Number of cycles rename is blocking
system.switch_cpus1.rename.serializeStallCycles      5072485                       # count of cycles rename stalled for serializing inst
system.switch_cpus1.rename.RunCycles         26454395                       # Number of cycles rename is running
system.switch_cpus1.rename.UnblockCycles      1562046                       # Number of cycles rename is unblocking
system.switch_cpus1.rename.RenamedInsts     159204337                       # Number of instructions processed by rename
system.switch_cpus1.rename.ROBFullEvents         1105                       # Number of times rename has blocked due to ROB full
system.switch_cpus1.rename.IQFullEvents        353815                       # Number of times rename has blocked due to IQ full
system.switch_cpus1.rename.LSQFullEvents       623954                       # Number of times rename has blocked due to LSQ full
system.switch_cpus1.rename.FullRegisterEvents          885                       # Number of times there has been no free registers
system.switch_cpus1.rename.RenamedOperands    221230940                       # Number of destination operands rename has renamed
system.switch_cpus1.rename.RenameLookups    740966601                       # Number of register rename lookups that rename has made
system.switch_cpus1.rename.int_rename_lookups    740966601                       # Number of integer rename lookups
system.switch_cpus1.rename.CommittedMaps    191284127                       # Number of HB maps that are committed
system.switch_cpus1.rename.UndoneMaps        29946798                       # Number of HB maps that are undone due to squashing
system.switch_cpus1.rename.serializingInsts        43906                       # count of serializing insts renamed
system.switch_cpus1.rename.tempSerializingInsts        25233                       # count of temporary serializing insts renamed
system.switch_cpus1.rename.skidInsts          4535222                       # count of insts added to the skid buffer
system.switch_cpus1.memDep0.insertedLoads     15114460                       # Number of loads inserted to the mem dependence unit.
system.switch_cpus1.memDep0.insertedStores      8291326                       # Number of stores inserted to the mem dependence unit.
system.switch_cpus1.memDep0.conflictingLoads       146861                       # Number of conflicting loads.
system.switch_cpus1.memDep0.conflictingStores      1802590                       # Number of conflicting stores.
system.switch_cpus1.iq.iqInstsAdded         158987332                       # Number of instructions added to the IQ (excludes non-spec)
system.switch_cpus1.iq.iqNonSpecInstsAdded        43880                       # Number of non-speculative instructions added to the IQ
system.switch_cpus1.iq.iqInstsIssued        150815612                       # Number of instructions issued
system.switch_cpus1.iq.iqSquashedInstsIssued        30315                       # Number of squashed instructions issued
system.switch_cpus1.iq.iqSquashedInstsExamined     18045982                       # Number of squashed instructions iterated over during squash; mainly for profiling
system.switch_cpus1.iq.iqSquashedOperandsExamined     42874169                       # Number of squashed operands that are examined and possibly removed from graph
system.switch_cpus1.iq.iqSquashedNonSpecRemoved         6532                       # Number of squashed non-spec instructions that were removed
system.switch_cpus1.iq.issued_per_cycle::samples    259539063                       # Number of insts issued each cycle
system.switch_cpus1.iq.issued_per_cycle::mean     0.581090                       # Number of insts issued each cycle
system.switch_cpus1.iq.issued_per_cycle::stdev     1.270340                       # Number of insts issued each cycle
system.switch_cpus1.iq.issued_per_cycle::underflows            0      0.00%      0.00% # Number of insts issued each cycle
system.switch_cpus1.iq.issued_per_cycle::0    195762334     75.43%     75.43% # Number of insts issued each cycle
system.switch_cpus1.iq.issued_per_cycle::1     26007534     10.02%     85.45% # Number of insts issued each cycle
system.switch_cpus1.iq.issued_per_cycle::2     13443366      5.18%     90.63% # Number of insts issued each cycle
system.switch_cpus1.iq.issued_per_cycle::3     10129074      3.90%     94.53% # Number of insts issued each cycle
system.switch_cpus1.iq.issued_per_cycle::4      7877596      3.04%     97.57% # Number of insts issued each cycle
system.switch_cpus1.iq.issued_per_cycle::5      3164166      1.22%     98.78% # Number of insts issued each cycle
system.switch_cpus1.iq.issued_per_cycle::6      2009767      0.77%     99.56% # Number of insts issued each cycle
system.switch_cpus1.iq.issued_per_cycle::7      1017500      0.39%     99.95% # Number of insts issued each cycle
system.switch_cpus1.iq.issued_per_cycle::8       127726      0.05%    100.00% # Number of insts issued each cycle
system.switch_cpus1.iq.issued_per_cycle::overflows            0      0.00%    100.00% # Number of insts issued each cycle
system.switch_cpus1.iq.issued_per_cycle::min_value            0                       # Number of insts issued each cycle
system.switch_cpus1.iq.issued_per_cycle::max_value            8                       # Number of insts issued each cycle
system.switch_cpus1.iq.issued_per_cycle::total    259539063                       # Number of insts issued each cycle
system.switch_cpus1.iq.fu_full::No_OpClass            0      0.00%      0.00% # attempts to use FU when none available
system.switch_cpus1.iq.fu_full::IntAlu          26884     10.11%     10.11% # attempts to use FU when none available
system.switch_cpus1.iq.fu_full::IntMult             0      0.00%     10.11% # attempts to use FU when none available
system.switch_cpus1.iq.fu_full::IntDiv              0      0.00%     10.11% # attempts to use FU when none available
system.switch_cpus1.iq.fu_full::FloatAdd            0      0.00%     10.11% # attempts to use FU when none available
system.switch_cpus1.iq.fu_full::FloatCmp            0      0.00%     10.11% # attempts to use FU when none available
system.switch_cpus1.iq.fu_full::FloatCvt            0      0.00%     10.11% # attempts to use FU when none available
system.switch_cpus1.iq.fu_full::FloatMult            0      0.00%     10.11% # attempts to use FU when none available
system.switch_cpus1.iq.fu_full::FloatDiv            0      0.00%     10.11% # attempts to use FU when none available
system.switch_cpus1.iq.fu_full::FloatSqrt            0      0.00%     10.11% # attempts to use FU when none available
system.switch_cpus1.iq.fu_full::SimdAdd             0      0.00%     10.11% # attempts to use FU when none available
system.switch_cpus1.iq.fu_full::SimdAddAcc            0      0.00%     10.11% # attempts to use FU when none available
system.switch_cpus1.iq.fu_full::SimdAlu             0      0.00%     10.11% # attempts to use FU when none available
system.switch_cpus1.iq.fu_full::SimdCmp             0      0.00%     10.11% # attempts to use FU when none available
system.switch_cpus1.iq.fu_full::SimdCvt             0      0.00%     10.11% # attempts to use FU when none available
system.switch_cpus1.iq.fu_full::SimdMisc            0      0.00%     10.11% # attempts to use FU when none available
system.switch_cpus1.iq.fu_full::SimdMult            0      0.00%     10.11% # attempts to use FU when none available
system.switch_cpus1.iq.fu_full::SimdMultAcc            0      0.00%     10.11% # attempts to use FU when none available
system.switch_cpus1.iq.fu_full::SimdShift            0      0.00%     10.11% # attempts to use FU when none available
system.switch_cpus1.iq.fu_full::SimdShiftAcc            0      0.00%     10.11% # attempts to use FU when none available
system.switch_cpus1.iq.fu_full::SimdSqrt            0      0.00%     10.11% # attempts to use FU when none available
system.switch_cpus1.iq.fu_full::SimdFloatAdd            0      0.00%     10.11% # attempts to use FU when none available
system.switch_cpus1.iq.fu_full::SimdFloatAlu            0      0.00%     10.11% # attempts to use FU when none available
system.switch_cpus1.iq.fu_full::SimdFloatCmp            0      0.00%     10.11% # attempts to use FU when none available
system.switch_cpus1.iq.fu_full::SimdFloatCvt            0      0.00%     10.11% # attempts to use FU when none available
system.switch_cpus1.iq.fu_full::SimdFloatDiv            0      0.00%     10.11% # attempts to use FU when none available
system.switch_cpus1.iq.fu_full::SimdFloatMisc            0      0.00%     10.11% # attempts to use FU when none available
system.switch_cpus1.iq.fu_full::SimdFloatMult            0      0.00%     10.11% # attempts to use FU when none available
system.switch_cpus1.iq.fu_full::SimdFloatMultAcc            0      0.00%     10.11% # attempts to use FU when none available
system.switch_cpus1.iq.fu_full::SimdFloatSqrt            0      0.00%     10.11% # attempts to use FU when none available
system.switch_cpus1.iq.fu_full::MemRead         97603     36.69%     46.80% # attempts to use FU when none available
system.switch_cpus1.iq.fu_full::MemWrite       141504     53.20%    100.00% # attempts to use FU when none available
system.switch_cpus1.iq.fu_full::IprAccess            0      0.00%    100.00% # attempts to use FU when none available
system.switch_cpus1.iq.fu_full::InstPrefetch            0      0.00%    100.00% # attempts to use FU when none available
system.switch_cpus1.iq.FU_type_0::No_OpClass            0      0.00%      0.00% # Type of FU issued
system.switch_cpus1.iq.FU_type_0::IntAlu    126350100     83.78%     83.78% # Type of FU issued
system.switch_cpus1.iq.FU_type_0::IntMult      2339491      1.55%     85.33% # Type of FU issued
system.switch_cpus1.iq.FU_type_0::IntDiv            0      0.00%     85.33% # Type of FU issued
system.switch_cpus1.iq.FU_type_0::FloatAdd            0      0.00%     85.33% # Type of FU issued
system.switch_cpus1.iq.FU_type_0::FloatCmp            0      0.00%     85.33% # Type of FU issued
system.switch_cpus1.iq.FU_type_0::FloatCvt            0      0.00%     85.33% # Type of FU issued
system.switch_cpus1.iq.FU_type_0::FloatMult            0      0.00%     85.33% # Type of FU issued
system.switch_cpus1.iq.FU_type_0::FloatDiv            0      0.00%     85.33% # Type of FU issued
system.switch_cpus1.iq.FU_type_0::FloatSqrt            0      0.00%     85.33% # Type of FU issued
system.switch_cpus1.iq.FU_type_0::SimdAdd            0      0.00%     85.33% # Type of FU issued
system.switch_cpus1.iq.FU_type_0::SimdAddAcc            0      0.00%     85.33% # Type of FU issued
system.switch_cpus1.iq.FU_type_0::SimdAlu            0      0.00%     85.33% # Type of FU issued
system.switch_cpus1.iq.FU_type_0::SimdCmp            0      0.00%     85.33% # Type of FU issued
system.switch_cpus1.iq.FU_type_0::SimdCvt            0      0.00%     85.33% # Type of FU issued
system.switch_cpus1.iq.FU_type_0::SimdMisc            0      0.00%     85.33% # Type of FU issued
system.switch_cpus1.iq.FU_type_0::SimdMult            0      0.00%     85.33% # Type of FU issued
system.switch_cpus1.iq.FU_type_0::SimdMultAcc            0      0.00%     85.33% # Type of FU issued
system.switch_cpus1.iq.FU_type_0::SimdShift            0      0.00%     85.33% # Type of FU issued
system.switch_cpus1.iq.FU_type_0::SimdShiftAcc            0      0.00%     85.33% # Type of FU issued
system.switch_cpus1.iq.FU_type_0::SimdSqrt            0      0.00%     85.33% # Type of FU issued
system.switch_cpus1.iq.FU_type_0::SimdFloatAdd            0      0.00%     85.33% # Type of FU issued
system.switch_cpus1.iq.FU_type_0::SimdFloatAlu            0      0.00%     85.33% # Type of FU issued
system.switch_cpus1.iq.FU_type_0::SimdFloatCmp            0      0.00%     85.33% # Type of FU issued
system.switch_cpus1.iq.FU_type_0::SimdFloatCvt            0      0.00%     85.33% # Type of FU issued
system.switch_cpus1.iq.FU_type_0::SimdFloatDiv            0      0.00%     85.33% # Type of FU issued
system.switch_cpus1.iq.FU_type_0::SimdFloatMisc        18673      0.01%     85.34% # Type of FU issued
system.switch_cpus1.iq.FU_type_0::SimdFloatMult            0      0.00%     85.34% # Type of FU issued
system.switch_cpus1.iq.FU_type_0::SimdFloatMultAcc            0      0.00%     85.34% # Type of FU issued
system.switch_cpus1.iq.FU_type_0::SimdFloatSqrt            0      0.00%     85.34% # Type of FU issued
system.switch_cpus1.iq.FU_type_0::MemRead     13878393      9.20%     94.54% # Type of FU issued
system.switch_cpus1.iq.FU_type_0::MemWrite      8228955      5.46%    100.00% # Type of FU issued
system.switch_cpus1.iq.FU_type_0::IprAccess            0      0.00%    100.00% # Type of FU issued
system.switch_cpus1.iq.FU_type_0::InstPrefetch            0      0.00%    100.00% # Type of FU issued
system.switch_cpus1.iq.FU_type_0::total     150815612                       # Type of FU issued
system.switch_cpus1.iq.rate                  0.533492                       # Inst issue rate
system.switch_cpus1.iq.fu_busy_cnt             265991                       # FU busy when requested
system.switch_cpus1.iq.fu_busy_rate          0.001764                       # FU busy rate (busy events/executed inst)
system.switch_cpus1.iq.int_inst_queue_reads    561466593                       # Number of integer instruction queue reads
system.switch_cpus1.iq.int_inst_queue_writes    177077579                       # Number of integer instruction queue writes
system.switch_cpus1.iq.int_inst_queue_wakeup_accesses    148556941                       # Number of integer instruction queue wakeup accesses
system.switch_cpus1.iq.fp_inst_queue_reads            0                       # Number of floating instruction queue reads
system.switch_cpus1.iq.fp_inst_queue_writes            0                       # Number of floating instruction queue writes
system.switch_cpus1.iq.fp_inst_queue_wakeup_accesses            0                       # Number of floating instruction queue wakeup accesses
system.switch_cpus1.iq.int_alu_accesses     151081603                       # Number of integer alu accesses
system.switch_cpus1.iq.fp_alu_accesses              0                       # Number of floating point alu accesses
system.switch_cpus1.iew.lsq.thread0.forwLoads       352861                       # Number of loads that had data forwarded from stores
system.switch_cpus1.iew.lsq.thread0.invAddrLoads            0                       # Number of loads ignored due to an invalid address
system.switch_cpus1.iew.lsq.thread0.squashedLoads      2491832                       # Number of loads squashed
system.switch_cpus1.iew.lsq.thread0.ignoredResponses           28                       # Number of memory responses ignored because the instruction is squashed
system.switch_cpus1.iew.lsq.thread0.memOrderViolation          385                       # Number of memory ordering violations
system.switch_cpus1.iew.lsq.thread0.squashedStores       201320                       # Number of stores squashed
system.switch_cpus1.iew.lsq.thread0.invAddrSwpfs            0                       # Number of software prefetches ignored due to an invalid address
system.switch_cpus1.iew.lsq.thread0.blockedLoads            0                       # Number of blocked loads due to partial load-store forwarding
system.switch_cpus1.iew.lsq.thread0.rescheduledLoads            0                       # Number of loads that were rescheduled
system.switch_cpus1.iew.lsq.thread0.cacheBlocked           85                       # Number of times an access to memory failed due to the cache being blocked
system.switch_cpus1.iew.iewIdleCycles               0                       # Number of cycles IEW is idle
system.switch_cpus1.iew.iewSquashCycles       3957219                       # Number of cycles IEW is squashing
system.switch_cpus1.iew.iewBlockCycles        1192390                       # Number of cycles IEW is blocking
system.switch_cpus1.iew.iewUnblockCycles       142775                       # Number of cycles IEW is unblocking
system.switch_cpus1.iew.iewDispatchedInsts    159031213                       # Number of instructions dispatched to IQ
system.switch_cpus1.iew.iewDispSquashedInsts        72986                       # Number of squashed instructions skipped by dispatch
system.switch_cpus1.iew.iewDispLoadInsts     15114460                       # Number of dispatched load instructions
system.switch_cpus1.iew.iewDispStoreInsts      8291326                       # Number of dispatched store instructions
system.switch_cpus1.iew.iewDispNonSpecInsts        25206                       # Number of dispatched non-speculative instructions
system.switch_cpus1.iew.iewIQFullEvents        105296                       # Number of times the IQ has become full, causing a stall
system.switch_cpus1.iew.iewLSQFullEvents            0                       # Number of times the LSQ has become full, causing a stall
system.switch_cpus1.iew.memOrderViolationEvents          385                       # Number of memory order violations
system.switch_cpus1.iew.predictedTakenIncorrect      1312591                       # Number of branches that were predicted taken incorrectly
system.switch_cpus1.iew.predictedNotTakenIncorrect      1279136                       # Number of branches that were predicted not taken incorrectly
system.switch_cpus1.iew.branchMispredicts      2591727                       # Number of branch mispredicts detected at execute
system.switch_cpus1.iew.iewExecutedInsts    148770635                       # Number of executed instructions
system.switch_cpus1.iew.iewExecLoadInsts     13086026                       # Number of load instructions executed
system.switch_cpus1.iew.iewExecSquashedInsts      2044977                       # Number of squashed instructions skipped in execute
system.switch_cpus1.iew.exec_swp                    0                       # number of swp insts executed
system.switch_cpus1.iew.exec_nop                    1                       # number of nop insts executed
system.switch_cpus1.iew.exec_refs            21312852                       # number of memory reference insts executed
system.switch_cpus1.iew.exec_branches        21029553                       # Number of branches executed
system.switch_cpus1.iew.exec_stores           8226826                       # Number of stores executed
system.switch_cpus1.iew.exec_rate            0.526258                       # Inst execution rate
system.switch_cpus1.iew.wb_sent             148557036                       # cumulative count of insts sent to commit
system.switch_cpus1.iew.wb_count            148556941                       # cumulative count of insts written-back
system.switch_cpus1.iew.wb_producers         85508129                       # num instructions producing a value
system.switch_cpus1.iew.wb_consumers        229054694                       # num instructions consuming a value
system.switch_cpus1.iew.wb_penalized                0                       # number of instrctions required to write to 'other' IQ
system.switch_cpus1.iew.wb_rate              0.525502                       # insts written-back per cycle
system.switch_cpus1.iew.wb_fanout            0.373309                       # average fanout of values written-back
system.switch_cpus1.iew.wb_penalized_rate            0                       # fraction of instructions written-back that wrote to 'other' IQ
system.switch_cpus1.commit.commitCommittedInsts    112027983                       # The number of committed instructions
system.switch_cpus1.commit.commitCommittedOps    137686204                       # The number of committed instructions
system.switch_cpus1.commit.commitSquashedInsts     21353379                       # The number of squashed insts skipped by commit
system.switch_cpus1.commit.commitNonSpecStalls        37348                       # The number of times commit has been forced to stall to communicate backwards
system.switch_cpus1.commit.branchMispredicts      2289623                       # The number of times a branch was mispredicted
system.switch_cpus1.commit.committed_per_cycle::samples    255581844                       # Number of insts commited each cycle
system.switch_cpus1.commit.committed_per_cycle::mean     0.538717                       # Number of insts commited each cycle
system.switch_cpus1.commit.committed_per_cycle::stdev     1.388511                       # Number of insts commited each cycle
system.switch_cpus1.commit.committed_per_cycle::underflows            0      0.00%      0.00% # Number of insts commited each cycle
system.switch_cpus1.commit.committed_per_cycle::0    199292058     77.98%     77.98% # Number of insts commited each cycle
system.switch_cpus1.commit.committed_per_cycle::1     27753669     10.86%     88.83% # Number of insts commited each cycle
system.switch_cpus1.commit.committed_per_cycle::2     10548886      4.13%     92.96% # Number of insts commited each cycle
system.switch_cpus1.commit.committed_per_cycle::3      5091411      1.99%     94.95% # Number of insts commited each cycle
system.switch_cpus1.commit.committed_per_cycle::4      4211525      1.65%     96.60% # Number of insts commited each cycle
system.switch_cpus1.commit.committed_per_cycle::5      2518952      0.99%     97.59% # Number of insts commited each cycle
system.switch_cpus1.commit.committed_per_cycle::6      2130048      0.83%     98.42% # Number of insts commited each cycle
system.switch_cpus1.commit.committed_per_cycle::7       942978      0.37%     98.79% # Number of insts commited each cycle
system.switch_cpus1.commit.committed_per_cycle::8      3092317      1.21%    100.00% # Number of insts commited each cycle
system.switch_cpus1.commit.committed_per_cycle::overflows            0      0.00%    100.00% # Number of insts commited each cycle
system.switch_cpus1.commit.committed_per_cycle::min_value            0                       # Number of insts commited each cycle
system.switch_cpus1.commit.committed_per_cycle::max_value            8                       # Number of insts commited each cycle
system.switch_cpus1.commit.committed_per_cycle::total    255581844                       # Number of insts commited each cycle
system.switch_cpus1.commit.committedInsts    112027983                       # Number of instructions committed
system.switch_cpus1.commit.committedOps     137686204                       # Number of ops (including micro ops) committed
[...]
system.cpu2.icache.ReadReq_avg_miss_latency::total 256221.956522                       # average ReadReq miss latency
system.cpu2.icache.demand_avg_miss_latency::switch_cpus2.inst 256221.956522                       # average overall miss latency
system.cpu2.icache.demand_avg_miss_latency::total 256221.956522                       # average overall miss latency
system.cpu2.icache.overall_avg_miss_latency::switch_cpus2.inst 256221.956522                       # average overall miss latency
system.cpu2.icache.overall_avg_miss_latency::total 256221.956522                       # average overall miss latency
system.cpu2.icache.blocked_cycles::no_mshrs            0                       # number of cycles access was blocked
system.cpu2.icache.blocked_cycles::no_targets            0                       # number of cycles access was blocked
system.cpu2.icache.blocked::no_mshrs                0                       # number of cycles access was blocked
system.cpu2.icache.blocked::no_targets              0                       # number of cycles access was blocked
system.cpu2.icache.avg_blocked_cycles::no_mshrs          nan                       # average number of cycles each access was blocked
system.cpu2.icache.avg_blocked_cycles::no_targets          nan                       # average number of cycles each access was blocked
system.cpu2.icache.fast_writes                      0                       # number of fast writes performed
system.cpu2.icache.cache_copies                     0                       # number of cache copies performed
system.cpu2.icache.ReadReq_mshr_hits::switch_cpus2.inst            4                       # number of ReadReq MSHR hits
system.cpu2.icache.ReadReq_mshr_hits::total            4                       # number of ReadReq MSHR hits
system.cpu2.icache.demand_mshr_hits::switch_cpus2.inst            4                       # number of demand (read+write) MSHR hits
system.cpu2.icache.demand_mshr_hits::total            4                       # number of demand (read+write) MSHR hits
system.cpu2.icache.overall_mshr_hits::switch_cpus2.inst            4                       # number of overall MSHR hits
system.cpu2.icache.overall_mshr_hits::total            4                       # number of overall MSHR hits
system.cpu2.icache.ReadReq_mshr_misses::switch_cpus2.inst           19                       # number of ReadReq MSHR misses
system.cpu2.icache.ReadReq_mshr_misses::total           19                       # number of ReadReq MSHR misses
system.cpu2.icache.demand_mshr_misses::switch_cpus2.inst           19                       # number of demand (read+write) MSHR misses
system.cpu2.icache.demand_mshr_misses::total           19                       # number of demand (read+write) MSHR misses
system.cpu2.icache.overall_mshr_misses::switch_cpus2.inst           19                       # number of overall MSHR misses
system.cpu2.icache.overall_mshr_misses::total           19                       # number of overall MSHR misses
system.cpu2.icache.ReadReq_mshr_miss_latency::switch_cpus2.inst      4865579                       # number of ReadReq MSHR miss cycles
system.cpu2.icache.ReadReq_mshr_miss_latency::total      4865579                       # number of ReadReq MSHR miss cycles
system.cpu2.icache.demand_mshr_miss_latency::switch_cpus2.inst      4865579                       # number of demand (read+write) MSHR miss cycles
system.cpu2.icache.demand_mshr_miss_latency::total      4865579                       # number of demand (read+write) MSHR miss cycles
system.cpu2.icache.overall_mshr_miss_latency::switch_cpus2.inst      4865579                       # number of overall MSHR miss cycles
system.cpu2.icache.overall_mshr_miss_latency::total      4865579                       # number of overall MSHR miss cycles
system.cpu2.icache.ReadReq_mshr_miss_rate::switch_cpus2.inst     0.000001                       # mshr miss rate for ReadReq accesses
system.cpu2.icache.ReadReq_mshr_miss_rate::total     0.000001                       # mshr miss rate for ReadReq accesses
system.cpu2.icache.demand_mshr_miss_rate::switch_cpus2.inst     0.000001                       # mshr miss rate for demand accesses
system.cpu2.icache.demand_mshr_miss_rate::total     0.000001                       # mshr miss rate for demand accesses
system.cpu2.icache.overall_mshr_miss_rate::switch_cpus2.inst     0.000001                       # mshr miss rate for overall accesses
system.cpu2.icache.overall_mshr_miss_rate::total     0.000001                       # mshr miss rate for overall accesses
system.cpu2.icache.ReadReq_avg_mshr_miss_latency::switch_cpus2.inst 256083.105263                       # average ReadReq mshr miss latency
system.cpu2.icache.ReadReq_avg_mshr_miss_latency::total 256083.105263                       # average ReadReq mshr miss latency
system.cpu2.icache.demand_avg_mshr_miss_latency::switch_cpus2.inst 256083.105263                       # average overall mshr miss latency
system.cpu2.icache.demand_avg_mshr_miss_latency::total 256083.105263                       # average overall mshr miss latency
system.cpu2.icache.overall_avg_mshr_miss_latency::switch_cpus2.inst 256083.105263                       # average overall mshr miss latency
system.cpu2.icache.overall_avg_mshr_miss_latency::total 256083.105263                       # average overall mshr miss latency
system.cpu2.icache.no_allocate_misses               0                       # Number of misses that were no-allocate
system.cpu2.dcache.replacements                 38894                       # number of replacements
system.cpu2.dcache.tagsinuse                      256                       # Cycle average of tags in use
system.cpu2.dcache.total_refs               178230272                       # Total number of references to valid blocks.
system.cpu2.dcache.sampled_refs                 39150                       # Sample count of references to valid blocks.
system.cpu2.dcache.avg_refs               4552.497369                       # Average number of references to valid blocks.
system.cpu2.dcache.warmup_cycle                     0                       # Cycle when the warmup percentage was hit.
system.cpu2.dcache.occ_blocks::switch_cpus2.data   230.699104                       # Average occupied blocks per requestor
system.cpu2.dcache.occ_blocks::cpu2.data    25.300896                       # Average occupied blocks per requestor
system.cpu2.dcache.occ_percent::switch_cpus2.data     0.901168                       # Average percentage of cache occupancy
system.cpu2.dcache.occ_percent::cpu2.data     0.098832                       # Average percentage of cache occupancy
system.cpu2.dcache.occ_percent::total               1                       # Average percentage of cache occupancy
system.cpu2.dcache.ReadReq_hits::switch_cpus2.data     10669452                       # number of ReadReq hits
system.cpu2.dcache.ReadReq_hits::total       10669452                       # number of ReadReq hits
system.cpu2.dcache.WriteReq_hits::switch_cpus2.data      8364785                       # number of WriteReq hits
system.cpu2.dcache.WriteReq_hits::total       8364785                       # number of WriteReq hits
system.cpu2.dcache.LoadLockedReq_hits::switch_cpus2.data        20212                       # number of LoadLockedReq hits
system.cpu2.dcache.LoadLockedReq_hits::total        20212                       # number of LoadLockedReq hits
system.cpu2.dcache.StoreCondReq_hits::switch_cpus2.data        20178                       # number of StoreCondReq hits
system.cpu2.dcache.StoreCondReq_hits::total        20178                       # number of StoreCondReq hits
system.cpu2.dcache.demand_hits::switch_cpus2.data     19034237                       # number of demand (read+write) hits
system.cpu2.dcache.demand_hits::total        19034237                       # number of demand (read+write) hits
system.cpu2.dcache.overall_hits::switch_cpus2.data     19034237                       # number of overall hits
system.cpu2.dcache.overall_hits::total       19034237                       # number of overall hits
system.cpu2.dcache.ReadReq_misses::switch_cpus2.data        99906                       # number of ReadReq misses
system.cpu2.dcache.ReadReq_misses::total        99906                       # number of ReadReq misses
system.cpu2.dcache.WriteReq_misses::switch_cpus2.data          165                       # number of WriteReq misses
system.cpu2.dcache.WriteReq_misses::total          165                       # number of WriteReq misses
system.cpu2.dcache.demand_misses::switch_cpus2.data       100071                       # number of demand (read+write) misses
system.cpu2.dcache.demand_misses::total        100071                       # number of demand (read+write) misses
system.cpu2.dcache.overall_misses::switch_cpus2.data       100071                       # number of overall misses
system.cpu2.dcache.overall_misses::total       100071                       # number of overall misses
system.cpu2.dcache.ReadReq_miss_latency::switch_cpus2.data   9416238965                       # number of ReadReq miss cycles
system.cpu2.dcache.ReadReq_miss_latency::total   9416238965                       # number of ReadReq miss cycles
system.cpu2.dcache.WriteReq_miss_latency::switch_cpus2.data     44446269                       # number of WriteReq miss cycles
system.cpu2.dcache.WriteReq_miss_latency::total     44446269                       # number of WriteReq miss cycles
system.cpu2.dcache.demand_miss_latency::switch_cpus2.data   9460685234                       # number of demand (read+write) miss cycles
system.cpu2.dcache.demand_miss_latency::total   9460685234                       # number of demand (read+write) miss cycles
system.cpu2.dcache.overall_miss_latency::switch_cpus2.data   9460685234                       # number of overall miss cycles
system.cpu2.dcache.overall_miss_latency::total   9460685234                       # number of overall miss cycles
system.cpu2.dcache.ReadReq_accesses::switch_cpus2.data     10769358                       # number of ReadReq accesses(hits+misses)
system.cpu2.dcache.ReadReq_accesses::total     10769358                       # number of ReadReq accesses(hits+misses)
system.cpu2.dcache.WriteReq_accesses::switch_cpus2.data      8364950                       # number of WriteReq accesses(hits+misses)
system.cpu2.dcache.WriteReq_accesses::total      8364950                       # number of WriteReq accesses(hits+misses)
system.cpu2.dcache.LoadLockedReq_accesses::switch_cpus2.data        20212                       # number of LoadLockedReq accesses(hits+misses)
system.cpu2.dcache.LoadLockedReq_accesses::total        20212                       # number of LoadLockedReq accesses(hits+misses)
system.cpu2.dcache.StoreCondReq_accesses::switch_cpus2.data        20178                       # number of StoreCondReq accesses(hits+misses)
system.cpu2.dcache.StoreCondReq_accesses::total        20178                       # number of StoreCondReq accesses(hits+misses)
system.cpu2.dcache.demand_accesses::switch_cpus2.data     19134308                       # number of demand (read+write) accesses
system.cpu2.dcache.demand_accesses::total     19134308                       # number of demand (read+write) accesses
system.cpu2.dcache.overall_accesses::switch_cpus2.data     19134308                       # number of overall (read+write) accesses
system.cpu2.dcache.overall_accesses::total     19134308                       # number of overall (read+write) accesses
system.cpu2.dcache.ReadReq_miss_rate::switch_cpus2.data     0.009277                       # miss rate for ReadReq accesses
system.cpu2.dcache.ReadReq_miss_rate::total     0.009277                       # miss rate for ReadReq accesses
system.cpu2.dcache.WriteReq_miss_rate::switch_cpus2.data     0.000020                       # miss rate for WriteReq accesses
system.cpu2.dcache.WriteReq_miss_rate::total     0.000020                       # miss rate for WriteReq accesses
system.cpu2.dcache.demand_miss_rate::switch_cpus2.data     0.005230                       # miss rate for demand accesses
system.cpu2.dcache.demand_miss_rate::total     0.005230                       # miss rate for demand accesses
system.cpu2.dcache.overall_miss_rate::switch_cpus2.data     0.005230                       # miss rate for overall accesses
system.cpu2.dcache.overall_miss_rate::total     0.005230                       # miss rate for overall accesses
system.cpu2.dcache.ReadReq_avg_miss_latency::switch_cpus2.data 94250.985576                       # average ReadReq miss latency
system.cpu2.dcache.ReadReq_avg_miss_latency::total 94250.985576                       # average ReadReq miss latency
system.cpu2.dcache.WriteReq_avg_miss_latency::switch_cpus2.data 269371.327273                       # average WriteReq miss latency
system.cpu2.dcache.WriteReq_avg_miss_latency::total 269371.327273                       # average WriteReq miss latency
system.cpu2.dcache.demand_avg_miss_latency::switch_cpus2.data 94539.729132                       # average overall miss latency
system.cpu2.dcache.demand_avg_miss_latency::total 94539.729132                       # average overall miss latency
system.cpu2.dcache.overall_avg_miss_latency::switch_cpus2.data 94539.729132                       # average overall miss latency
system.cpu2.dcache.overall_avg_miss_latency::total 94539.729132                       # average overall miss latency
system.cpu2.dcache.blocked_cycles::no_mshrs            0                       # number of cycles access was blocked
system.cpu2.dcache.blocked_cycles::no_targets       442042                       # number of cycles access was blocked
system.cpu2.dcache.blocked::no_mshrs                0                       # number of cycles access was blocked
system.cpu2.dcache.blocked::no_targets              2                       # number of cycles access was blocked
system.cpu2.dcache.avg_blocked_cycles::no_mshrs          nan                       # average number of cycles each access was blocked
system.cpu2.dcache.avg_blocked_cycles::no_targets       221021                       # average number of cycles each access was blocked
system.cpu2.dcache.fast_writes                      0                       # number of fast writes performed
system.cpu2.dcache.cache_copies                     0                       # number of cache copies performed
system.cpu2.dcache.writebacks::writebacks        11293                       # number of writebacks
system.cpu2.dcache.writebacks::total            11293                       # number of writebacks
system.cpu2.dcache.ReadReq_mshr_hits::switch_cpus2.data        61032                       # number of ReadReq MSHR hits
system.cpu2.dcache.ReadReq_mshr_hits::total        61032                       # number of ReadReq MSHR hits
system.cpu2.dcache.WriteReq_mshr_hits::switch_cpus2.data          145                       # number of WriteReq MSHR hits
system.cpu2.dcache.WriteReq_mshr_hits::total          145                       # number of WriteReq MSHR hits
system.cpu2.dcache.demand_mshr_hits::switch_cpus2.data        61177                       # number of demand (read+write) MSHR hits
system.cpu2.dcache.demand_mshr_hits::total        61177                       # number of demand (read+write) MSHR hits
system.cpu2.dcache.overall_mshr_hits::switch_cpus2.data        61177                       # number of overall MSHR hits
system.cpu2.dcache.overall_mshr_hits::total        61177                       # number of overall MSHR hits
system.cpu2.dcache.ReadReq_mshr_misses::switch_cpus2.data        38874                       # number of ReadReq MSHR misses
system.cpu2.dcache.ReadReq_mshr_misses::total        38874                       # number of ReadReq MSHR misses
system.cpu2.dcache.WriteReq_mshr_misses::switch_cpus2.data           20                       # number of WriteReq MSHR misses
system.cpu2.dcache.WriteReq_mshr_misses::total           20                       # number of WriteReq MSHR misses
system.cpu2.dcache.demand_mshr_misses::switch_cpus2.data        38894                       # number of demand (read+write) MSHR misses
system.cpu2.dcache.demand_mshr_misses::total        38894                       # number of demand (read+write) MSHR misses
system.cpu2.dcache.overall_mshr_misses::switch_cpus2.data        38894                       # number of overall MSHR misses
system.cpu2.dcache.overall_mshr_misses::total        38894                       # number of overall MSHR misses
system.cpu2.dcache.ReadReq_mshr_miss_latency::switch_cpus2.data   3325147430                       # number of ReadReq MSHR miss cycles
system.cpu2.dcache.ReadReq_mshr_miss_latency::total   3325147430                       # number of ReadReq MSHR miss cycles
system.cpu2.dcache.WriteReq_mshr_miss_latency::switch_cpus2.data      5247325                       # number of WriteReq MSHR miss cycles
system.cpu2.dcache.WriteReq_mshr_miss_latency::total      5247325                       # number of WriteReq MSHR miss cycles
system.cpu2.dcache.demand_mshr_miss_latency::switch_cpus2.data   3330394755                       # number of demand (read+write) MSHR miss cycles
system.cpu2.dcache.demand_mshr_miss_latency::total   3330394755                       # number of demand (read+write) MSHR miss cycles
system.cpu2.dcache.overall_mshr_miss_latency::switch_cpus2.data   3330394755                       # number of overall MSHR miss cycles
system.cpu2.dcache.overall_mshr_miss_latency::total   3330394755                       # number of overall MSHR miss cycles
system.cpu2.dcache.ReadReq_mshr_miss_rate::switch_cpus2.data     0.003610                       # mshr miss rate for ReadReq accesses
system.cpu2.dcache.ReadReq_mshr_miss_rate::total     0.003610                       # mshr miss rate for ReadReq accesses
system.cpu2.dcache.WriteReq_mshr_miss_rate::switch_cpus2.data     0.000002                       # mshr miss rate for WriteReq accesses
system.cpu2.dcache.WriteReq_mshr_miss_rate::total     0.000002                       # mshr miss rate for WriteReq accesses
system.cpu2.dcache.demand_mshr_miss_rate::switch_cpus2.data     0.002033                       # mshr miss rate for demand accesses
system.cpu2.dcache.demand_mshr_miss_rate::total     0.002033                       # mshr miss rate for demand accesses
system.cpu2.dcache.overall_mshr_miss_rate::switch_cpus2.data     0.002033                       # mshr miss rate for overall accesses
system.cpu2.dcache.overall_mshr_miss_rate::total     0.002033                       # mshr miss rate for overall accesses
system.cpu2.dcache.ReadReq_avg_mshr_miss_latency::switch_cpus2.data 85536.539332                       # average ReadReq mshr miss latency
system.cpu2.dcache.ReadReq_avg_mshr_miss_latency::total 85536.539332                       # average ReadReq mshr miss latency
system.cpu2.dcache.WriteReq_avg_mshr_miss_latency::switch_cpus2.data 262366.250000                       # average WriteReq mshr miss latency
system.cpu2.dcache.WriteReq_avg_mshr_miss_latency::total 262366.250000                       # average WriteReq mshr miss latency
system.cpu2.dcache.demand_avg_mshr_miss_latency::switch_cpus2.data 85627.468376                       # average overall mshr miss latency
system.cpu2.dcache.demand_avg_mshr_miss_latency::total 85627.468376                       # average overall mshr miss latency
system.cpu2.dcache.overall_avg_mshr_miss_latency::switch_cpus2.data 85627.468376                       # average overall mshr miss latency
system.cpu2.dcache.overall_avg_mshr_miss_latency::total 85627.468376                       # average overall mshr miss latency
system.cpu2.dcache.no_allocate_misses               0                       # Number of misses that were no-allocate

---------- End Simulation Statistics   ----------
