
---------- Begin Simulation Statistics ----------
sim_seconds                                  0.003597                       # Number of seconds simulated
sim_ticks                                  3597343491                       # Number of ticks simulated
final_tick                               533168687745                       # Number of ticks from beginning of simulation (restored from checkpoints and never reset)
sim_freq                                 1000000000000                       # Frequency of simulated ticks
host_inst_rate                                 313429                       # Simulator instruction rate (inst/s)
host_op_rate                                   405897                       # Simulator op (including micro ops) rate (op/s)
host_tick_rate                                 284691                       # Simulator tick rate (ticks/s)
host_mem_usage                               16918036                       # Number of bytes of host memory used
host_seconds                                 12635.94                       # Real time elapsed on the host
sim_insts                                  3960468296                       # Number of instructions simulated
sim_ops                                    5128884103                       # Number of ops (including micro ops) simulated
system.physmem.bytes_read::switch_cpus0.inst         5632                       # Number of bytes read from this memory
system.physmem.bytes_read::switch_cpus0.data       373120                       # Number of bytes read from this memory
system.physmem.bytes_read::switch_cpus1.inst         5504                       # Number of bytes read from this memory
system.physmem.bytes_read::switch_cpus1.data       288512                       # Number of bytes read from this memory
system.physmem.bytes_read::switch_cpus2.inst         4992                       # Number of bytes read from this memory
system.physmem.bytes_read::switch_cpus2.data       411904                       # Number of bytes read from this memory
system.physmem.bytes_read::switch_cpus3.inst         5376                       # Number of bytes read from this memory
system.physmem.bytes_read::switch_cpus3.data       260096                       # Number of bytes read from this memory
system.physmem.bytes_read::total              1355136                       # Number of bytes read from this memory
system.physmem.bytes_inst_read::switch_cpus0.inst         5632                       # Number of instructions bytes read from this memory
system.physmem.bytes_inst_read::switch_cpus1.inst         5504                       # Number of instructions bytes read from this memory
system.physmem.bytes_inst_read::switch_cpus2.inst         4992                       # Number of instructions bytes read from this memory
system.physmem.bytes_inst_read::switch_cpus3.inst         5376                       # Number of instructions bytes read from this memory
system.physmem.bytes_inst_read::total           21504                       # Number of instructions bytes read from this memory
system.physmem.bytes_written::writebacks       325504                       # Number of bytes written to this memory
system.physmem.bytes_written::total            325504                       # Number of bytes written to this memory
system.physmem.num_reads::switch_cpus0.inst           44                       # Number of read requests responded to by this memory
system.physmem.num_reads::switch_cpus0.data         2915                       # Number of read requests responded to by this memory
system.physmem.num_reads::switch_cpus1.inst           43                       # Number of read requests responded to by this memory
system.physmem.num_reads::switch_cpus1.data         2254                       # Number of read requests responded to by this memory
system.physmem.num_reads::switch_cpus2.inst           39                       # Number of read requests responded to by this memory
system.physmem.num_reads::switch_cpus2.data         3218                       # Number of read requests responded to by this memory
system.physmem.num_reads::switch_cpus3.inst           42                       # Number of read requests responded to by this memory
system.physmem.num_reads::switch_cpus3.data         2032                       # Number of read requests responded to by this memory
system.physmem.num_reads::total                 10587                       # Number of read requests responded to by this memory
system.physmem.num_writes::writebacks            2543                       # Number of write requests responded to by this memory
system.physmem.num_writes::functional               0                       # Number of write requests responded to by this memory
system.physmem.num_writes::interrupt                0                       # Number of write requests responded to by this memory
system.physmem.num_writes::switch_cpus0.dtb.walker            0                       # Number of write requests responded to by this memory
system.physmem.num_writes::switch_cpus0.itb.walker            0                       # Number of write requests responded to by this memory
system.physmem.num_writes::switch_cpus0.inst            0                       # Number of write requests responded to by this memory
system.physmem.num_writes::switch_cpus0.data            0                       # Number of write requests responded to by this memory
system.physmem.num_writes::switch_cpus1.dtb.walker            0                       # Number of write requests responded to by this memory
system.physmem.num_writes::switch_cpus1.itb.walker            0                       # Number of write requests responded to by this memory
system.physmem.num_writes::switch_cpus1.inst            0                       # Number of write requests responded to by this memory
system.physmem.num_writes::switch_cpus1.data            0                       # Number of write requests responded to by this memory
system.physmem.num_writes::switch_cpus2.dtb.walker            0                       # Number of write requests responded to by this memory
system.physmem.num_writes::switch_cpus2.itb.walker            0                       # Number of write requests responded to by this memory
system.physmem.num_writes::switch_cpus2.inst            0                       # Number of write requests responded to by this memory
system.physmem.num_writes::switch_cpus2.data            0                       # Number of write requests responded to by this memory
system.physmem.num_writes::switch_cpus3.dtb.walker            0                       # Number of write requests responded to by this memory
system.physmem.num_writes::switch_cpus3.itb.walker            0                       # Number of write requests responded to by this memory
system.physmem.num_writes::switch_cpus3.inst            0                       # Number of write requests responded to by this memory
system.physmem.num_writes::switch_cpus3.data            0                       # Number of write requests responded to by this memory
system.physmem.num_writes::cpu0.dtb.walker            0                       # Number of write requests responded to by this memory
system.physmem.num_writes::cpu0.itb.walker            0                       # Number of write requests responded to by this memory
system.physmem.num_writes::cpu0.inst                0                       # Number of write requests responded to by this memory
system.physmem.num_writes::cpu0.data                0                       # Number of write requests responded to by this memory
system.physmem.num_writes::cpu1.dtb.walker            0                       # Number of write requests responded to by this memory
system.physmem.num_writes::cpu1.itb.walker            0                       # Number of write requests responded to by this memory
system.physmem.num_writes::cpu1.inst                0                       # Number of write requests responded to by this memory
system.physmem.num_writes::cpu1.data                0                       # Number of write requests responded to by this memory
system.physmem.num_writes::cpu2.dtb.walker            0                       # Number of write requests responded to by this memory
system.physmem.num_writes::cpu2.itb.walker            0                       # Number of write requests responded to by this memory
system.physmem.num_writes::cpu2.inst                0                       # Number of write requests responded to by this memory
system.physmem.num_writes::cpu2.data                0                       # Number of write requests responded to by this memory
system.physmem.num_writes::cpu3.dtb.walker            0                       # Number of write requests responded to by this memory
system.physmem.num_writes::cpu3.itb.walker            0                       # Number of write requests responded to by this memory
system.physmem.num_writes::cpu3.inst                0                       # Number of write requests responded to by this memory
system.physmem.num_writes::cpu3.data                0                       # Number of write requests responded to by this memory
system.physmem.num_writes::total                 2543                       # Number of write requests responded to by this memory
system.physmem.bw_read::switch_cpus0.inst      1565600                       # Total read bandwidth from this memory (bytes/s)
system.physmem.bw_read::switch_cpus0.data    103720982                       # Total read bandwidth from this memory (bytes/s)
system.physmem.bw_read::switch_cpus1.inst      1530018                       # Total read bandwidth from this memory (bytes/s)
system.physmem.bw_read::switch_cpus1.data     80201404                       # Total read bandwidth from this memory (bytes/s)
system.physmem.bw_read::switch_cpus2.inst      1387691                       # Total read bandwidth from this memory (bytes/s)
system.physmem.bw_read::switch_cpus2.data    114502271                       # Total read bandwidth from this memory (bytes/s)
system.physmem.bw_read::switch_cpus3.inst      1494436                       # Total read bandwidth from this memory (bytes/s)
system.physmem.bw_read::switch_cpus3.data     72302242                       # Total read bandwidth from this memory (bytes/s)
system.physmem.bw_read::total               376704644                       # Total read bandwidth from this memory (bytes/s)
system.physmem.bw_inst_read::switch_cpus0.inst      1565600                       # Instruction read bandwidth from this memory (bytes/s)
system.physmem.bw_inst_read::switch_cpus1.inst      1530018                       # Instruction read bandwidth from this memory (bytes/s)
system.physmem.bw_inst_read::switch_cpus2.inst      1387691                       # Instruction read bandwidth from this memory (bytes/s)
system.physmem.bw_inst_read::switch_cpus3.inst      1494436                       # Instruction read bandwidth from this memory (bytes/s)
system.physmem.bw_inst_read::total            5977744                       # Instruction read bandwidth from this memory (bytes/s)
system.physmem.bw_write::writebacks          90484548                       # Write bandwidth from this memory (bytes/s)
system.physmem.bw_write::total               90484548                       # Write bandwidth from this memory (bytes/s)
system.physmem.bw_total::writebacks          90484548                       # Total bandwidth to/from this memory (bytes/s)
system.physmem.bw_total::switch_cpus0.inst      1565600                       # Total bandwidth to/from this memory (bytes/s)
system.physmem.bw_total::switch_cpus0.data    103720982                       # Total bandwidth to/from this memory (bytes/s)
system.physmem.bw_total::switch_cpus1.inst      1530018                       # Total bandwidth to/from this memory (bytes/s)
system.physmem.bw_total::switch_cpus1.data     80201404                       # Total bandwidth to/from this memory (bytes/s)
system.physmem.bw_total::switch_cpus2.inst      1387691                       # Total bandwidth to/from this memory (bytes/s)
system.physmem.bw_total::switch_cpus2.data    114502271                       # Total bandwidth to/from this memory (bytes/s)
system.physmem.bw_total::switch_cpus3.inst      1494436                       # Total bandwidth to/from this memory (bytes/s)
system.physmem.bw_total::switch_cpus3.data     72302242                       # Total bandwidth to/from this memory (bytes/s)
system.physmem.bw_total::total              467189192                       # Total bandwidth to/from this memory (bytes/s)
system.switch_cpus0.dtb.inst_hits                   0                       # ITB inst hits
system.switch_cpus0.dtb.inst_misses                 0                       # ITB inst misses
system.switch_cpus0.dtb.read_hits                   0                       # DTB read hits
system.switch_cpus0.dtb.read_misses                 0                       # DTB read misses
system.switch_cpus0.dtb.write_hits                  0                       # DTB write hits
system.switch_cpus0.dtb.write_misses                0                       # DTB write misses
system.switch_cpus0.dtb.flush_tlb                   0                       # Number of times complete TLB was flushed
system.switch_cpus0.dtb.flush_tlb_mva               0                       # Number of times TLB was flushed by MVA
system.switch_cpus0.dtb.flush_tlb_mva_asid            0                       # Number of times TLB was flushed by MVA & ASID
system.switch_cpus0.dtb.flush_tlb_asid              0                       # Number of times TLB was flushed by ASID
system.switch_cpus0.dtb.flush_entries               0                       # Number of entries that have been flushed from TLB
system.switch_cpus0.dtb.align_faults                0                       # Number of TLB faults due to alignment restrictions
system.switch_cpus0.dtb.prefetch_faults             0                       # Number of TLB faults due to prefetch
system.switch_cpus0.dtb.domain_faults               0                       # Number of TLB faults due to domain restrictions
system.switch_cpus0.dtb.perms_faults                0                       # Number of TLB faults due to permissions restrictions
system.switch_cpus0.dtb.read_accesses               0                       # DTB read accesses
system.switch_cpus0.dtb.write_accesses              0                       # DTB write accesses
system.switch_cpus0.dtb.inst_accesses               0                       # ITB inst accesses
system.switch_cpus0.dtb.hits                        0                       # DTB hits
system.switch_cpus0.dtb.misses                      0                       # DTB misses
system.switch_cpus0.dtb.accesses                    0                       # DTB accesses
system.switch_cpus0.itb.inst_hits                   0                       # ITB inst hits
system.switch_cpus0.itb.inst_misses                 0                       # ITB inst misses
system.switch_cpus0.itb.read_hits                   0                       # DTB read hits
system.switch_cpus0.itb.read_misses                 0                       # DTB read misses
system.switch_cpus0.itb.write_hits                  0                       # DTB write hits
system.switch_cpus0.itb.write_misses                0                       # DTB write misses
system.switch_cpus0.itb.flush_tlb                   0                       # Number of times complete TLB was flushed
system.switch_cpus0.itb.flush_tlb_mva               0                       # Number of times TLB was flushed by MVA
system.switch_cpus0.itb.flush_tlb_mva_asid            0                       # Number of times TLB was flushed by MVA & ASID
system.switch_cpus0.itb.flush_tlb_asid              0                       # Number of times TLB was flushed by ASID
system.switch_cpus0.itb.flush_entries               0                       # Number of entries that have been flushed from TLB
system.switch_cpus0.itb.align_faults                0                       # Number of TLB faults due to alignment restrictions
system.switch_cpus0.itb.prefetch_faults             0                       # Number of TLB faults due to prefetch
system.switch_cpus0.itb.domain_faults               0                       # Number of TLB faults due to domain restrictions
system.switch_cpus0.itb.perms_faults                0                       # Number of TLB faults due to permissions restrictions
system.switch_cpus0.itb.read_accesses               0                       # DTB read accesses
system.switch_cpus0.itb.write_accesses              0                       # DTB write accesses
system.switch_cpus0.itb.inst_accesses               0                       # ITB inst accesses
system.switch_cpus0.itb.hits                        0                       # DTB hits
system.switch_cpus0.itb.misses                      0                       # DTB misses
system.switch_cpus0.itb.accesses                    0                       # DTB accesses
system.cpu0.workload.num_syscalls                  12                       # Number of system calls
system.switch_cpus0.numCycles                 8626724                       # number of cpu cycles simulated
system.switch_cpus0.numWorkItemsStarted             0                       # number of work items this cpu started
system.switch_cpus0.numWorkItemsCompleted            0                       # number of work items this cpu completed
system.switch_cpus0.BPredUnit.lookups         3088349                       # Number of BP lookups
system.switch_cpus0.BPredUnit.condPredicted      2535190                       # Number of conditional branches predicted
system.switch_cpus0.BPredUnit.condIncorrect       206918                       # Number of conditional branches incorrect
system.switch_cpus0.BPredUnit.BTBLookups      1249634                       # Number of BTB lookups
system.switch_cpus0.BPredUnit.BTBHits         1194073                       # Number of BTB hits
system.switch_cpus0.BPredUnit.BTBCorrect            0                       # Number of correct BTB predictions (this stat may not work properly.
system.switch_cpus0.BPredUnit.usedRAS          300464                       # Number of times the RAS was used to get a target.
system.switch_cpus0.BPredUnit.RASInCorrect         8841                       # Number of incorrect RAS predictions.
system.switch_cpus0.fetch.icacheStallCycles      3321938                       # Number of cycles fetch is stalled on an Icache miss
system.switch_cpus0.fetch.Insts              16806473                       # Number of instructions fetch has processed
system.switch_cpus0.fetch.Branches            3088349                       # Number of branches that fetch encountered
system.switch_cpus0.fetch.predictedBranches      1494537                       # Number of branches that fetch has predicted taken
system.switch_cpus0.fetch.Cycles              3597801                       # Number of cycles fetch has run and was not squashing or blocked
system.switch_cpus0.fetch.SquashCycles        1039679                       # Number of cycles fetch has spent squashing
system.switch_cpus0.fetch.BlockedCycles        731265                       # Number of cycles fetch has spent blocked
system.switch_cpus0.fetch.PendingTrapStallCycles            6                       # Number of stall cycles due to pending traps
system.switch_cpus0.fetch.CacheLines          1635577                       # Number of cache lines fetched
system.switch_cpus0.fetch.IcacheSquashes        93423                       # Number of outstanding Icache misses that were squashed
system.switch_cpus0.fetch.rateDist::samples      8480619                       # Number of instructions fetched each cycle (Total)
system.switch_cpus0.fetch.rateDist::mean     2.431970                       # Number of instructions fetched each cycle (Total)
system.switch_cpus0.fetch.rateDist::stdev     3.320288                       # Number of instructions fetched each cycle (Total)
system.switch_cpus0.fetch.rateDist::underflows            0      0.00%      0.00% # Number of instructions fetched each cycle (Total)
system.switch_cpus0.fetch.rateDist::0         4882818     57.58%     57.58% # Number of instructions fetched each cycle (Total)
system.switch_cpus0.fetch.rateDist::1          353805      4.17%     61.75% # Number of instructions fetched each cycle (Total)
system.switch_cpus0.fetch.rateDist::2          335160      3.95%     65.70% # Number of instructions fetched each cycle (Total)
system.switch_cpus0.fetch.rateDist::3          315291      3.72%     69.42% # Number of instructions fetched each cycle (Total)
system.switch_cpus0.fetch.rateDist::4          261001      3.08%     72.50% # Number of instructions fetched each cycle (Total)
system.switch_cpus0.fetch.rateDist::5          189158      2.23%     74.73% # Number of instructions fetched each cycle (Total)
system.switch_cpus0.fetch.rateDist::6          135858      1.60%     76.33% # Number of instructions fetched each cycle (Total)
system.switch_cpus0.fetch.rateDist::7          210554      2.48%     78.81% # Number of instructions fetched each cycle (Total)
system.switch_cpus0.fetch.rateDist::8         1796974     21.19%    100.00% # Number of instructions fetched each cycle (Total)
system.switch_cpus0.fetch.rateDist::overflows            0      0.00%    100.00% # Number of instructions fetched each cycle (Total)
system.switch_cpus0.fetch.rateDist::min_value            0                       # Number of instructions fetched each cycle (Total)
system.switch_cpus0.fetch.rateDist::max_value            8                       # Number of instructions fetched each cycle (Total)
system.switch_cpus0.fetch.rateDist::total      8480619                       # Number of instructions fetched each cycle (Total)
system.switch_cpus0.fetch.branchRate         0.357998                       # Number of branch fetches per cycle
system.switch_cpus0.fetch.rate               1.948187                       # Number of inst fetches per cycle
system.switch_cpus0.decode.IdleCycles         3478116                       # Number of cycles decode is idle
system.switch_cpus0.decode.BlockedCycles       697513                       # Number of cycles decode is blocked
system.switch_cpus0.decode.RunCycles          3437592                       # Number of cycles decode is running
system.switch_cpus0.decode.UnblockCycles        41643                       # Number of cycles decode is unblocking
system.switch_cpus0.decode.SquashCycles        825752                       # Number of cycles decode is squashing
system.switch_cpus0.decode.BranchResolved       496439                       # Number of times decode resolved a branch
system.switch_cpus0.decode.BranchMispred         3886                       # Number of times decode detected a branch misprediction
system.switch_cpus0.decode.DecodedInsts      19981269                       # Number of instructions handled by decode
system.switch_cpus0.decode.SquashedInsts        10389                       # Number of squashed instructions handled by decode
system.switch_cpus0.rename.SquashCycles        825752                       # Number of cycles rename is squashing
system.switch_cpus0.rename.IdleCycles         3661173                       # Number of cycles rename is idle
system.switch_cpus0.rename.BlockCycles         341805                       # Number of cycles rename is blocking
system.switch_cpus0.rename.serializeStallCycles        74033                       # count of cycles rename stalled for serializing inst
system.switch_cpus0.rename.RunCycles          3289540                       # Number of cycles rename is running
system.switch_cpus0.rename.UnblockCycles       288313                       # Number of cycles rename is unblocking
system.switch_cpus0.rename.RenamedInsts      19381044                       # Number of instructions processed by rename
system.switch_cpus0.rename.ROBFullEvents           48                       # Number of times rename has blocked due to ROB full
system.switch_cpus0.rename.IQFullEvents        156214                       # Number of times rename has blocked due to IQ full
system.switch_cpus0.rename.LSQFullEvents        81733                       # Number of times rename has blocked due to LSQ full
system.switch_cpus0.rename.FullRegisterEvents           36                       # Number of times there has been no free registers
system.switch_cpus0.rename.RenamedOperands     26879702                       # Number of destination operands rename has renamed
system.switch_cpus0.rename.RenameLookups     90285336                       # Number of register rename lookups that rename has made
system.switch_cpus0.rename.int_rename_lookups     90285336                       # Number of integer rename lookups
system.switch_cpus0.rename.CommittedMaps     16795127                       # Number of HB maps that are committed
system.switch_cpus0.rename.UndoneMaps        10084530                       # Number of HB maps that are undone due to squashing
system.switch_cpus0.rename.serializingInsts         3580                       # count of serializing insts renamed
system.switch_cpus0.rename.tempSerializingInsts         1858                       # count of temporary serializing insts renamed
system.switch_cpus0.rename.skidInsts           705777                       # count of insts added to the skid buffer
system.switch_cpus0.memDep0.insertedLoads      1899065                       # Number of loads inserted to the mem dependence unit.
system.switch_cpus0.memDep0.insertedStores      1014102                       # Number of stores inserted to the mem dependence unit.
system.switch_cpus0.memDep0.conflictingLoads        23814                       # Number of conflicting loads.
system.switch_cpus0.memDep0.conflictingStores       422275                       # Number of conflicting stores.
system.switch_cpus0.iq.iqInstsAdded          18057188                       # Number of instructions added to the IQ (excludes non-spec)
system.switch_cpus0.iq.iqNonSpecInstsAdded         3469                       # Number of non-speculative instructions added to the IQ
system.switch_cpus0.iq.iqInstsIssued         14610838                       # Number of instructions issued
system.switch_cpus0.iq.iqSquashedInstsIssued        23253                       # Number of squashed instructions issued
system.switch_cpus0.iq.iqSquashedInstsExamined      5723235                       # Number of squashed instructions iterated over during squash; mainly for profiling
system.switch_cpus0.iq.iqSquashedOperandsExamined     17493949                       # Number of squashed operands that are examined and possibly removed from graph
system.switch_cpus0.iq.iqSquashedNonSpecRemoved          216                       # Number of squashed non-spec instructions that were removed
system.switch_cpus0.iq.issued_per_cycle::samples      8480619                       # Number of insts issued each cycle
system.switch_cpus0.iq.issued_per_cycle::mean     1.722850                       # Number of insts issued each cycle
system.switch_cpus0.iq.issued_per_cycle::stdev     1.840366                       # Number of insts issued each cycle
system.switch_cpus0.iq.issued_per_cycle::underflows            0      0.00%      0.00% # Number of insts issued each cycle
system.switch_cpus0.iq.issued_per_cycle::0      2998822     35.36%     35.36% # Number of insts issued each cycle
system.switch_cpus0.iq.issued_per_cycle::1      1710530     20.17%     55.53% # Number of insts issued each cycle
system.switch_cpus0.iq.issued_per_cycle::2      1358171     16.01%     71.55% # Number of insts issued each cycle
system.switch_cpus0.iq.issued_per_cycle::3       816952      9.63%     81.18% # Number of insts issued each cycle
system.switch_cpus0.iq.issued_per_cycle::4       834817      9.84%     91.02% # Number of insts issued each cycle
system.switch_cpus0.iq.issued_per_cycle::5       380030      4.48%     95.50% # Number of insts issued each cycle
system.switch_cpus0.iq.issued_per_cycle::6       244665      2.88%     98.39% # Number of insts issued each cycle
system.switch_cpus0.iq.issued_per_cycle::7        67354      0.79%     99.18% # Number of insts issued each cycle
system.switch_cpus0.iq.issued_per_cycle::8        69278      0.82%    100.00% # Number of insts issued each cycle
system.switch_cpus0.iq.issued_per_cycle::overflows            0      0.00%    100.00% # Number of insts issued each cycle
system.switch_cpus0.iq.issued_per_cycle::min_value            0                       # Number of insts issued each cycle
system.switch_cpus0.iq.issued_per_cycle::max_value            8                       # Number of insts issued each cycle
system.switch_cpus0.iq.issued_per_cycle::total      8480619                       # Number of insts issued each cycle
system.switch_cpus0.iq.fu_full::No_OpClass            0      0.00%      0.00% # attempts to use FU when none available
system.switch_cpus0.iq.fu_full::IntAlu          64203     58.29%     58.29% # attempts to use FU when none available
system.switch_cpus0.iq.fu_full::IntMult             0      0.00%     58.29% # attempts to use FU when none available
system.switch_cpus0.iq.fu_full::IntDiv              0      0.00%     58.29% # attempts to use FU when none available
system.switch_cpus0.iq.fu_full::FloatAdd            0      0.00%     58.29% # attempts to use FU when none available
system.switch_cpus0.iq.fu_full::FloatCmp            0      0.00%     58.29% # attempts to use FU when none available
system.switch_cpus0.iq.fu_full::FloatCvt            0      0.00%     58.29% # attempts to use FU when none available
system.switch_cpus0.iq.fu_full::FloatMult            0      0.00%     58.29% # attempts to use FU when none available
system.switch_cpus0.iq.fu_full::FloatDiv            0      0.00%     58.29% # attempts to use FU when none available
system.switch_cpus0.iq.fu_full::FloatSqrt            0      0.00%     58.29% # attempts to use FU when none available
system.switch_cpus0.iq.fu_full::SimdAdd             0      0.00%     58.29% # attempts to use FU when none available
system.switch_cpus0.iq.fu_full::SimdAddAcc            0      0.00%     58.29% # attempts to use FU when none available
system.switch_cpus0.iq.fu_full::SimdAlu             0      0.00%     58.29% # attempts to use FU when none available
system.switch_cpus0.iq.fu_full::SimdCmp             0      0.00%     58.29% # attempts to use FU when none available
system.switch_cpus0.iq.fu_full::SimdCvt             0      0.00%     58.29% # attempts to use FU when none available
system.switch_cpus0.iq.fu_full::SimdMisc            0      0.00%     58.29% # attempts to use FU when none available
system.switch_cpus0.iq.fu_full::SimdMult            0      0.00%     58.29% # attempts to use FU when none available
system.switch_cpus0.iq.fu_full::SimdMultAcc            0      0.00%     58.29% # attempts to use FU when none available
system.switch_cpus0.iq.fu_full::SimdShift            0      0.00%     58.29% # attempts to use FU when none available
system.switch_cpus0.iq.fu_full::SimdShiftAcc            0      0.00%     58.29% # attempts to use FU when none available
system.switch_cpus0.iq.fu_full::SimdSqrt            0      0.00%     58.29% # attempts to use FU when none available
system.switch_cpus0.iq.fu_full::SimdFloatAdd            0      0.00%     58.29% # attempts to use FU when none available
system.switch_cpus0.iq.fu_full::SimdFloatAlu            0      0.00%     58.29% # attempts to use FU when none available
system.switch_cpus0.iq.fu_full::SimdFloatCmp            0      0.00%     58.29% # attempts to use FU when none available
system.switch_cpus0.iq.fu_full::SimdFloatCvt            0      0.00%     58.29% # attempts to use FU when none available
system.switch_cpus0.iq.fu_full::SimdFloatDiv            0      0.00%     58.29% # attempts to use FU when none available
system.switch_cpus0.iq.fu_full::SimdFloatMisc            0      0.00%     58.29% # attempts to use FU when none available
system.switch_cpus0.iq.fu_full::SimdFloatMult            0      0.00%     58.29% # attempts to use FU when none available
system.switch_cpus0.iq.fu_full::SimdFloatMultAcc            0      0.00%     58.29% # attempts to use FU when none available
system.switch_cpus0.iq.fu_full::SimdFloatSqrt            0      0.00%     58.29% # attempts to use FU when none available
system.switch_cpus0.iq.fu_full::MemRead         21540     19.56%     77.84% # attempts to use FU when none available
system.switch_cpus0.iq.fu_full::MemWrite        24404     22.16%    100.00% # attempts to use FU when none available
system.switch_cpus0.iq.fu_full::IprAccess            0      0.00%    100.00% # attempts to use FU when none available
system.switch_cpus0.iq.fu_full::InstPrefetch            0      0.00%    100.00% # attempts to use FU when none available
system.switch_cpus0.iq.FU_type_0::No_OpClass            0      0.00%      0.00% # Type of FU issued
system.switch_cpus0.iq.FU_type_0::IntAlu     12018056     82.25%     82.25% # Type of FU issued
system.switch_cpus0.iq.FU_type_0::IntMult       200607      1.37%     83.63% # Type of FU issued
system.switch_cpus0.iq.FU_type_0::IntDiv            0      0.00%     83.63% # Type of FU issued
system.switch_cpus0.iq.FU_type_0::FloatAdd            0      0.00%     83.63% # Type of FU issued
system.switch_cpus0.iq.FU_type_0::FloatCmp            0      0.00%     83.63% # Type of FU issued
system.switch_cpus0.iq.FU_type_0::FloatCvt            0      0.00%     83.63% # Type of FU issued
system.switch_cpus0.iq.FU_type_0::FloatMult            0      0.00%     83.63% # Type of FU issued
system.switch_cpus0.iq.FU_type_0::FloatDiv            0      0.00%     83.63% # Type of FU issued
system.switch_cpus0.iq.FU_type_0::FloatSqrt            0      0.00%     83.63% # Type of FU issued
system.switch_cpus0.iq.FU_type_0::SimdAdd            0      0.00%     83.63% # Type of FU issued
system.switch_cpus0.iq.FU_type_0::SimdAddAcc            0      0.00%     83.63% # Type of FU issued
system.switch_cpus0.iq.FU_type_0::SimdAlu            0      0.00%     83.63% # Type of FU issued
system.switch_cpus0.iq.FU_type_0::SimdCmp            0      0.00%     83.63% # Type of FU issued
system.switch_cpus0.iq.FU_type_0::SimdCvt            0      0.00%     83.63% # Type of FU issued
system.switch_cpus0.iq.FU_type_0::SimdMisc            0      0.00%     83.63% # Type of FU issued
system.switch_cpus0.iq.FU_type_0::SimdMult            0      0.00%     83.63% # Type of FU issued
system.switch_cpus0.iq.FU_type_0::SimdMultAcc            0      0.00%     83.63% # Type of FU issued
system.switch_cpus0.iq.FU_type_0::SimdShift            0      0.00%     83.63% # Type of FU issued
system.switch_cpus0.iq.FU_type_0::SimdShiftAcc            0      0.00%     83.63% # Type of FU issued
system.switch_cpus0.iq.FU_type_0::SimdSqrt            0      0.00%     83.63% # Type of FU issued
system.switch_cpus0.iq.FU_type_0::SimdFloatAdd            0      0.00%     83.63% # Type of FU issued
system.switch_cpus0.iq.FU_type_0::SimdFloatAlu            0      0.00%     83.63% # Type of FU issued
system.switch_cpus0.iq.FU_type_0::SimdFloatCmp            0      0.00%     83.63% # Type of FU issued
system.switch_cpus0.iq.FU_type_0::SimdFloatCvt            0      0.00%     83.63% # Type of FU issued
system.switch_cpus0.iq.FU_type_0::SimdFloatDiv            0      0.00%     83.63% # Type of FU issued
system.switch_cpus0.iq.FU_type_0::SimdFloatMisc         1594      0.01%     83.64% # Type of FU issued
system.switch_cpus0.iq.FU_type_0::SimdFloatMult            0      0.00%     83.64% # Type of FU issued
system.switch_cpus0.iq.FU_type_0::SimdFloatMultAcc            0      0.00%     83.64% # Type of FU issued
system.switch_cpus0.iq.FU_type_0::SimdFloatSqrt            0      0.00%     83.64% # Type of FU issued
system.switch_cpus0.iq.FU_type_0::MemRead      1543120     10.56%     94.20% # Type of FU issued
system.switch_cpus0.iq.FU_type_0::MemWrite       847461      5.80%    100.00% # Type of FU issued
system.switch_cpus0.iq.FU_type_0::IprAccess            0      0.00%    100.00% # Type of FU issued
system.switch_cpus0.iq.FU_type_0::InstPrefetch            0      0.00%    100.00% # Type of FU issued
system.switch_cpus0.iq.FU_type_0::total      14610838                       # Type of FU issued
system.switch_cpus0.iq.rate                  1.693672                       # Inst issue rate
system.switch_cpus0.iq.fu_busy_cnt             110147                       # FU busy when requested
system.switch_cpus0.iq.fu_busy_rate          0.007539                       # FU busy rate (busy events/executed inst)
system.switch_cpus0.iq.int_inst_queue_reads     37835694                       # Number of integer instruction queue reads
system.switch_cpus0.iq.int_inst_queue_writes     23784115                       # Number of integer instruction queue writes
system.switch_cpus0.iq.int_inst_queue_wakeup_accesses     14237787                       # Number of integer instruction queue wakeup accesses
system.switch_cpus0.iq.fp_inst_queue_reads            0                       # Number of floating instruction queue reads
system.switch_cpus0.iq.fp_inst_queue_writes            0                       # Number of floating instruction queue writes
system.switch_cpus0.iq.fp_inst_queue_wakeup_accesses            0                       # Number of floating instruction queue wakeup accesses
system.switch_cpus0.iq.int_alu_accesses      14720985                       # Number of integer alu accesses
system.switch_cpus0.iq.fp_alu_accesses              0                       # Number of floating point alu accesses
system.switch_cpus0.iew.lsq.thread0.forwLoads        45680                       # Number of loads that had data forwarded from stores
system.switch_cpus0.iew.lsq.thread0.invAddrLoads            0                       # Number of loads ignored due to an invalid address
system.switch_cpus0.iew.lsq.thread0.squashedLoads       666703                       # Number of loads squashed
system.switch_cpus0.iew.lsq.thread0.ignoredResponses          417                       # Number of memory responses ignored because the instruction is squashed
system.switch_cpus0.iew.lsq.thread0.memOrderViolation          229                       # Number of memory ordering violations
system.switch_cpus0.iew.lsq.thread0.squashedStores       232132                       # Number of stores squashed
system.switch_cpus0.iew.lsq.thread0.invAddrSwpfs            0                       # Number of software prefetches ignored due to an invalid address
system.switch_cpus0.iew.lsq.thread0.blockedLoads            0                       # Number of blocked loads due to partial load-store forwarding
system.switch_cpus0.iew.lsq.thread0.rescheduledLoads           73                       # Number of loads that were rescheduled
system.switch_cpus0.iew.lsq.thread0.cacheBlocked            0                       # Number of times an access to memory failed due to the cache being blocked
system.switch_cpus0.iew.iewIdleCycles               0                       # Number of cycles IEW is idle
system.switch_cpus0.iew.iewSquashCycles        825752                       # Number of cycles IEW is squashing
system.switch_cpus0.iew.iewBlockCycles         255097                       # Number of cycles IEW is blocking
system.switch_cpus0.iew.iewUnblockCycles        14259                       # Number of cycles IEW is unblocking
system.switch_cpus0.iew.iewDispatchedInsts     18060658                       # Number of instructions dispatched to IQ
system.switch_cpus0.iew.iewDispSquashedInsts        84950                       # Number of squashed instructions skipped by dispatch
system.switch_cpus0.iew.iewDispLoadInsts      1899065                       # Number of dispatched load instructions
system.switch_cpus0.iew.iewDispStoreInsts      1014102                       # Number of dispatched store instructions
system.switch_cpus0.iew.iewDispNonSpecInsts         1848                       # Number of dispatched non-speculative instructions
system.switch_cpus0.iew.iewIQFullEvents          9805                       # Number of times the IQ has become full, causing a stall
system.switch_cpus0.iew.iewLSQFullEvents         1394                       # Number of times the LSQ has become full, causing a stall
system.switch_cpus0.iew.memOrderViolationEvents          229                       # Number of memory order violations
system.switch_cpus0.iew.predictedTakenIncorrect       122689                       # Number of branches that were predicted taken incorrectly
system.switch_cpus0.iew.predictedNotTakenIncorrect       116450                       # Number of branches that were predicted not taken incorrectly
system.switch_cpus0.iew.branchMispredicts       239139                       # Number of branch mispredicts detected at execute
system.switch_cpus0.iew.iewExecutedInsts     14368243                       # Number of executed instructions
system.switch_cpus0.iew.iewExecLoadInsts      1465158                       # Number of load instructions executed
system.switch_cpus0.iew.iewExecSquashedInsts       242594                       # Number of squashed instructions skipped in execute
system.switch_cpus0.iew.exec_swp                    0                       # number of swp insts executed
system.switch_cpus0.iew.exec_nop                    1                       # number of nop insts executed
system.switch_cpus0.iew.exec_refs             2299477                       # number of memory reference insts executed
system.switch_cpus0.iew.exec_branches         2018255                       # Number of branches executed
system.switch_cpus0.iew.exec_stores            834319                       # Number of stores executed
system.switch_cpus0.iew.exec_rate            1.665550                       # Inst execution rate
system.switch_cpus0.iew.wb_sent              14248311                       # cumulative count of insts sent to commit
system.switch_cpus0.iew.wb_count             14237787                       # cumulative count of insts written-back
system.switch_cpus0.iew.wb_producers          9203698                       # num instructions producing a value
system.switch_cpus0.iew.wb_consumers         24910760                       # num instructions consuming a value
system.switch_cpus0.iew.wb_penalized                0                       # number of instrctions required to write to 'other' IQ
system.switch_cpus0.iew.wb_rate              1.650428                       # insts written-back per cycle
system.switch_cpus0.iew.wb_fanout            0.369467                       # average fanout of values written-back
system.switch_cpus0.iew.wb_penalized_rate            0                       # fraction of instructions written-back that wrote to 'other' IQ
system.switch_cpus0.commit.commitCommittedInsts     10000000                       # The number of committed instructions
system.switch_cpus0.commit.commitCommittedOps     12239191                       # The number of committed instructions
system.switch_cpus0.commit.commitSquashedInsts      5822299                       # The number of squashed insts skipped by commit
system.switch_cpus0.commit.commitNonSpecStalls         3253                       # The number of times commit has been forced to stall to communicate backwards
system.switch_cpus0.commit.branchMispredicts       206050                       # The number of times a branch was mispredicted
system.switch_cpus0.commit.committed_per_cycle::samples      7654867                       # Number of insts commited each cycle
system.switch_cpus0.commit.committed_per_cycle::mean     1.598877                       # Number of insts commited each cycle
system.switch_cpus0.commit.committed_per_cycle::stdev     2.115103                       # Number of insts commited each cycle
system.switch_cpus0.commit.committed_per_cycle::underflows            0      0.00%      0.00% # Number of insts commited each cycle
system.switch_cpus0.commit.committed_per_cycle::0      3064272     40.03%     40.03% # Number of insts commited each cycle
system.switch_cpus0.commit.committed_per_cycle::1      2050102     26.78%     66.81% # Number of insts commited each cycle
system.switch_cpus0.commit.committed_per_cycle::2       850938     11.12%     77.93% # Number of insts commited each cycle
system.switch_cpus0.commit.committed_per_cycle::3       429251      5.61%     83.54% # Number of insts commited each cycle
system.switch_cpus0.commit.committed_per_cycle::4       451172      5.89%     89.43% # Number of insts commited each cycle
system.switch_cpus0.commit.committed_per_cycle::5       226400      2.96%     92.39% # Number of insts commited each cycle
system.switch_cpus0.commit.committed_per_cycle::6       154892      2.02%     94.41% # Number of insts commited each cycle
system.switch_cpus0.commit.committed_per_cycle::7        89300      1.17%     95.58% # Number of insts commited each cycle
system.switch_cpus0.commit.committed_per_cycle::8       338540      4.42%    100.00% # Number of insts commited each cycle
system.switch_cpus0.commit.committed_per_cycle::overflows            0      0.00%    100.00% # Number of insts commited each cycle
system.switch_cpus0.commit.committed_per_cycle::min_value            0                       # Number of insts commited each cycle
system.switch_cpus0.commit.committed_per_cycle::max_value            8                       # Number of insts commited each cycle
system.switch_cpus0.commit.committed_per_cycle::total      7654867                       # Number of insts commited each cycle
system.switch_cpus0.commit.committedInsts     10000000                       # Number of instructions committed
system.switch_cpus0.commit.committedOps      12239191                       # Number of ops (including micro ops) committed
system.switch_cpus0.commit.swp_count                0                       # Number of s/w prefetches committed
system.switch_cpus0.commit.refs               2014329                       # Number of memory references committed
system.switch_cpus0.commit.loads              1232359                       # Number of loads committed
system.switch_cpus0.commit.membars               1618                       # Number of memory barriers committed
system.switch_cpus0.commit.branches           1757708                       # Number of branches committed
system.switch_cpus0.commit.fp_insts                 0                       # Number of committed floating point instructions.
system.switch_cpus0.commit.int_insts         11009334                       # Number of committed integer instructions.
system.switch_cpus0.commit.function_calls       240449                       # Number of function calls committed.
system.switch_cpus0.commit.bw_lim_events       338540                       # number cycles where commit BW limit reached
system.switch_cpus0.commit.bw_limited               0                       # number of insts not committed due to BW limits
system.switch_cpus0.rob.rob_reads            25377661                       # The number of ROB reads
system.switch_cpus0.rob.rob_writes           36949285                       # The number of ROB writes
system.switch_cpus0.timesIdled                   4360                       # Number of times that the entire CPU went into an idle state and unscheduled itself
system.switch_cpus0.idleCycles                 146105                       # Total number of cycles that the CPU has spent unscheduled due to idling
system.switch_cpus0.committedInsts           10000000                       # Number of Instructions Simulated
system.switch_cpus0.committedOps             12239191                       # Number of Ops (including micro ops) Simulated
system.switch_cpus0.committedInsts_total     10000000                       # Number of Instructions Simulated
system.switch_cpus0.cpi                      0.862672                       # CPI: Cycles Per Instruction
system.switch_cpus0.cpi_total                0.862672                       # CPI: Total CPI of All Threads
system.switch_cpus0.ipc                      1.159189                       # IPC: Instructions Per Cycle
system.switch_cpus0.ipc_total                1.159189                       # IPC: Total IPC of All Threads
system.switch_cpus0.int_regfile_reads        64946717                       # number of integer regfile reads
system.switch_cpus0.int_regfile_writes       19484947                       # number of integer regfile writes
system.switch_cpus0.misc_regfile_reads       18742265                       # number of misc regfile reads
system.switch_cpus0.misc_regfile_writes          3246                       # number of misc regfile writes
system.switch_cpus1.dtb.inst_hits                   0                       # ITB inst hits
system.switch_cpus1.dtb.inst_misses                 0                       # ITB inst misses
system.switch_cpus1.dtb.read_hits                   0                       # DTB read hits
system.switch_cpus1.dtb.read_misses                 0                       # DTB read misses
system.switch_cpus1.dtb.write_hits                  0                       # DTB write hits
system.switch_cpus1.dtb.write_misses                0                       # DTB write misses
system.switch_cpus1.dtb.flush_tlb                   0                       # Number of times complete TLB was flushed
system.switch_cpus1.dtb.flush_tlb_mva               0                       # Number of times TLB was flushed by MVA
system.switch_cpus1.dtb.flush_tlb_mva_asid            0                       # Number of times TLB was flushed by MVA & ASID
system.switch_cpus1.dtb.flush_tlb_asid              0                       # Number of times TLB was flushed by ASID
system.switch_cpus1.dtb.flush_entries               0                       # Number of entries that have been flushed from TLB
system.switch_cpus1.dtb.align_faults                0                       # Number of TLB faults due to alignment restrictions
system.switch_cpus1.dtb.prefetch_faults             0                       # Number of TLB faults due to prefetch
system.switch_cpus1.dtb.domain_faults               0                       # Number of TLB faults due to domain restrictions
system.switch_cpus1.dtb.perms_faults                0                       # Number of TLB faults due to permissions restrictions
system.switch_cpus1.dtb.read_accesses               0                       # DTB read accesses
system.switch_cpus1.dtb.write_accesses              0                       # DTB write accesses
system.switch_cpus1.dtb.inst_accesses               0                       # ITB inst accesses
system.switch_cpus1.dtb.hits                        0                       # DTB hits
system.switch_cpus1.dtb.misses                      0                       # DTB misses
system.switch_cpus1.dtb.accesses                    0                       # DTB accesses
system.switch_cpus1.itb.inst_hits                   0                       # ITB inst hits
system.switch_cpus1.itb.inst_misses                 0                       # ITB inst misses
system.switch_cpus1.itb.read_hits                   0                       # DTB read hits
system.switch_cpus1.itb.read_misses                 0                       # DTB read misses
system.switch_cpus1.itb.write_hits                  0                       # DTB write hits
system.switch_cpus1.itb.write_misses                0                       # DTB write misses
system.switch_cpus1.itb.flush_tlb                   0                       # Number of times complete TLB was flushed
system.switch_cpus1.itb.flush_tlb_mva               0                       # Number of times TLB was flushed by MVA
system.switch_cpus1.itb.flush_tlb_mva_asid            0                       # Number of times TLB was flushed by MVA & ASID
system.switch_cpus1.itb.flush_tlb_asid              0                       # Number of times TLB was flushed by ASID
system.switch_cpus1.itb.flush_entries               0                       # Number of entries that have been flushed from TLB
system.switch_cpus1.itb.align_faults                0                       # Number of TLB faults due to alignment restrictions
system.switch_cpus1.itb.prefetch_faults             0                       # Number of TLB faults due to prefetch
system.switch_cpus1.itb.domain_faults               0                       # Number of TLB faults due to domain restrictions
system.switch_cpus1.itb.perms_faults                0                       # Number of TLB faults due to permissions restrictions
system.switch_cpus1.itb.read_accesses               0                       # DTB read accesses
system.switch_cpus1.itb.write_accesses              0                       # DTB write accesses
system.switch_cpus1.itb.inst_accesses               0                       # ITB inst accesses
system.switch_cpus1.itb.hits                        0                       # DTB hits
system.switch_cpus1.itb.misses                      0                       # DTB misses
system.switch_cpus1.itb.accesses                    0                       # DTB accesses
system.cpu1.workload.num_syscalls                   8                       # Number of system calls
system.switch_cpus1.numCycles                 8626724                       # number of cpu cycles simulated
system.switch_cpus1.numWorkItemsStarted             0                       # number of work items this cpu started
system.switch_cpus1.numWorkItemsCompleted            0                       # number of work items this cpu completed
system.switch_cpus1.BPredUnit.lookups         3077391                       # Number of BP lookups
system.switch_cpus1.BPredUnit.condPredicted      2680090                       # Number of conditional branches predicted
system.switch_cpus1.BPredUnit.condIncorrect       201677                       # Number of conditional branches incorrect
system.switch_cpus1.BPredUnit.BTBLookups      1549976                       # Number of BTB lookups
system.switch_cpus1.BPredUnit.BTBHits         1486617                       # Number of BTB hits
system.switch_cpus1.BPredUnit.BTBCorrect            0                       # Number of correct BTB predictions (this stat may not work properly.
system.switch_cpus1.BPredUnit.usedRAS          217788                       # Number of times the RAS was used to get a target.
system.switch_cpus1.BPredUnit.RASInCorrect         6216                       # Number of incorrect RAS predictions.
system.switch_cpus1.fetch.icacheStallCycles      3748974                       # Number of cycles fetch is stalled on an Icache miss
system.switch_cpus1.fetch.Insts              17069064                       # Number of instructions fetch has processed
system.switch_cpus1.fetch.Branches            3077391                       # Number of branches that fetch encountered
system.switch_cpus1.fetch.predictedBranches      1704405                       # Number of branches that fetch has predicted taken
system.switch_cpus1.fetch.Cycles              3620488                       # Number of cycles fetch has run and was not squashing or blocked
system.switch_cpus1.fetch.SquashCycles         937765                       # Number of cycles fetch has spent squashing
system.switch_cpus1.fetch.BlockedCycles        383205                       # Number of cycles fetch has spent blocked
system.switch_cpus1.fetch.CacheLines          1842781                       # Number of cache lines fetched
system.switch_cpus1.fetch.IcacheSquashes        95609                       # Number of outstanding Icache misses that were squashed
system.switch_cpus1.fetch.rateDist::samples      8487508                       # Number of instructions fetched each cycle (Total)
system.switch_cpus1.fetch.rateDist::mean     2.321616                       # Number of instructions fetched each cycle (Total)
system.switch_cpus1.fetch.rateDist::stdev     3.293370                       # Number of instructions fetched each cycle (Total)
system.switch_cpus1.fetch.rateDist::underflows            0      0.00%      0.00% # Number of instructions fetched each cycle (Total)
system.switch_cpus1.fetch.rateDist::0         4867020     57.34%     57.34% # Number of instructions fetched each cycle (Total)
system.switch_cpus1.fetch.rateDist::1          646143      7.61%     64.96% # Number of instructions fetched each cycle (Total)
system.switch_cpus1.fetch.rateDist::2          319246      3.76%     68.72% # Number of instructions fetched each cycle (Total)
system.switch_cpus1.fetch.rateDist::3          236947      2.79%     71.51% # Number of instructions fetched each cycle (Total)
system.switch_cpus1.fetch.rateDist::4          199441      2.35%     73.86% # Number of instructions fetched each cycle (Total)
system.switch_cpus1.fetch.rateDist::5          169360      2.00%     75.85% # Number of instructions fetched each cycle (Total)
system.switch_cpus1.fetch.rateDist::6           58651      0.69%     76.55% # Number of instructions fetched each cycle (Total)
system.switch_cpus1.fetch.rateDist::7          212814      2.51%     79.05% # Number of instructions fetched each cycle (Total)
system.switch_cpus1.fetch.rateDist::8         1777886     20.95%    100.00% # Number of instructions fetched each cycle (Total)
system.switch_cpus1.fetch.rateDist::overflows            0      0.00%    100.00% # Number of instructions fetched each cycle (Total)
system.switch_cpus1.fetch.rateDist::min_value            0                       # Number of instructions fetched each cycle (Total)
system.switch_cpus1.fetch.rateDist::max_value            8                       # Number of instructions fetched each cycle (Total)
system.switch_cpus1.fetch.rateDist::total      8487508                       # Number of instructions fetched each cycle (Total)
system.switch_cpus1.fetch.branchRate         0.356728                       # Number of branch fetches per cycle
system.switch_cpus1.fetch.rate               1.978626                       # Number of inst fetches per cycle
system.switch_cpus1.decode.IdleCycles         3882284                       # Number of cycles decode is idle
system.switch_cpus1.decode.BlockedCycles       357527                       # Number of cycles decode is blocked
system.switch_cpus1.decode.RunCycles          3498227                       # Number of cycles decode is running
system.switch_cpus1.decode.UnblockCycles        17684                       # Number of cycles decode is unblocking
system.switch_cpus1.decode.SquashCycles        731782                       # Number of cycles decode is squashing
system.switch_cpus1.decode.BranchResolved       341006                       # Number of times decode resolved a branch
system.switch_cpus1.decode.BranchMispred         3077                       # Number of times decode detected a branch misprediction
system.switch_cpus1.decode.DecodedInsts      19111319                       # Number of instructions handled by decode
system.switch_cpus1.decode.SquashedInsts         4642                       # Number of squashed instructions handled by decode
system.switch_cpus1.rename.SquashCycles        731782                       # Number of cycles rename is squashing
system.switch_cpus1.rename.IdleCycles         4043649                       # Number of cycles rename is idle
system.switch_cpus1.rename.BlockCycles         157925                       # Number of cycles rename is blocking
system.switch_cpus1.rename.serializeStallCycles        43899                       # count of cycles rename stalled for serializing inst
system.switch_cpus1.rename.RunCycles          3352955                       # Number of cycles rename is running
system.switch_cpus1.rename.UnblockCycles       157294                       # Number of cycles rename is unblocking
system.switch_cpus1.rename.RenamedInsts      18515490                       # Number of instructions processed by rename
system.switch_cpus1.rename.ROBFullEvents           31                       # Number of times rename has blocked due to ROB full
system.switch_cpus1.rename.IQFullEvents         77917                       # Number of times rename has blocked due to IQ full
system.switch_cpus1.rename.LSQFullEvents        65681                       # Number of times rename has blocked due to LSQ full
system.switch_cpus1.rename.RenamedOperands     24551875                       # Number of destination operands rename has renamed
system.switch_cpus1.rename.RenameLookups     84342133                       # Number of register rename lookups that rename has made
system.switch_cpus1.rename.int_rename_lookups     84342133                       # Number of integer rename lookups
system.switch_cpus1.rename.CommittedMaps     16154637                       # Number of HB maps that are committed
system.switch_cpus1.rename.UndoneMaps         8397119                       # Number of HB maps that are undone due to squashing
system.switch_cpus1.rename.serializingInsts         2348                       # count of serializing insts renamed
system.switch_cpus1.rename.tempSerializingInsts         1258                       # count of temporary serializing insts renamed
system.switch_cpus1.rename.skidInsts           399490                       # count of insts added to the skid buffer
system.switch_cpus1.memDep0.insertedLoads      2814821                       # Number of loads inserted to the mem dependence unit.
system.switch_cpus1.memDep0.insertedStores       647139                       # Number of stores inserted to the mem dependence unit.
system.switch_cpus1.memDep0.conflictingLoads         8421                       # Number of conflicting loads.
system.switch_cpus1.memDep0.conflictingStores       215386                       # Number of conflicting stores.
system.switch_cpus1.iq.iqInstsAdded          17426098                       # Number of instructions added to the IQ (excludes non-spec)
system.switch_cpus1.iq.iqNonSpecInstsAdded         2358                       # Number of non-speculative instructions added to the IQ
system.switch_cpus1.iq.iqInstsIssued         14860495                       # Number of instructions issued
system.switch_cpus1.iq.iqSquashedInstsIssued        19066                       # Number of squashed instructions issued
system.switch_cpus1.iq.iqSquashedInstsExamined      4992209                       # Number of squashed instructions iterated over during squash; mainly for profiling
system.switch_cpus1.iq.iqSquashedOperandsExamined     13657730                       # Number of squashed operands that are examined and possibly removed from graph
system.switch_cpus1.iq.iqSquashedNonSpecRemoved          138                       # Number of squashed non-spec instructions that were removed
system.switch_cpus1.iq.issued_per_cycle::samples      8487508                       # Number of insts issued each cycle
system.switch_cpus1.iq.issued_per_cycle::mean     1.750867                       # Number of insts issued each cycle
system.switch_cpus1.iq.issued_per_cycle::stdev     1.858147                       # Number of insts issued each cycle
system.switch_cpus1.iq.issued_per_cycle::underflows            0      0.00%      0.00% # Number of insts issued each cycle
system.switch_cpus1.iq.issued_per_cycle::0      3021352     35.60%     35.60% # Number of insts issued each cycle
system.switch_cpus1.iq.issued_per_cycle::1      1812655     21.36%     56.95% # Number of insts issued each cycle
system.switch_cpus1.iq.issued_per_cycle::2       925922     10.91%     67.86% # Number of insts issued each cycle
system.switch_cpus1.iq.issued_per_cycle::3      1072210     12.63%     80.50% # Number of insts issued each cycle
system.switch_cpus1.iq.issued_per_cycle::4       803250      9.46%     89.96% # Number of insts issued each cycle
system.switch_cpus1.iq.issued_per_cycle::5       514678      6.06%     96.02% # Number of insts issued each cycle
system.switch_cpus1.iq.issued_per_cycle::6       220264      2.60%     98.62% # Number of insts issued each cycle
system.switch_cpus1.iq.issued_per_cycle::7        66024      0.78%     99.40% # Number of insts issued each cycle
system.switch_cpus1.iq.issued_per_cycle::8        51153      0.60%    100.00% # Number of insts issued each cycle
system.switch_cpus1.iq.issued_per_cycle::overflows            0      0.00%    100.00% # Number of insts issued each cycle
system.switch_cpus1.iq.issued_per_cycle::min_value            0                       # Number of insts issued each cycle
system.switch_cpus1.iq.issued_per_cycle::max_value            8                       # Number of insts issued each cycle
system.switch_cpus1.iq.issued_per_cycle::total      8487508                       # Number of insts issued each cycle
system.switch_cpus1.iq.fu_full::No_OpClass            0      0.00%      0.00% # attempts to use FU when none available
system.switch_cpus1.iq.fu_full::IntAlu          63288     73.07%     73.07% # attempts to use FU when none available
system.switch_cpus1.iq.fu_full::IntMult             0      0.00%     73.07% # attempts to use FU when none available
system.switch_cpus1.iq.fu_full::IntDiv              0      0.00%     73.07% # attempts to use FU when none available
system.switch_cpus1.iq.fu_full::FloatAdd            0      0.00%     73.07% # attempts to use FU when none available
system.switch_cpus1.iq.fu_full::FloatCmp            0      0.00%     73.07% # attempts to use FU when none available
system.switch_cpus1.iq.fu_full::FloatCvt            0      0.00%     73.07% # attempts to use FU when none available
system.switch_cpus1.iq.fu_full::FloatMult            0      0.00%     73.07% # attempts to use FU when none available
system.switch_cpus1.iq.fu_full::FloatDiv            0      0.00%     73.07% # attempts to use FU when none available
system.switch_cpus1.iq.fu_full::FloatSqrt            0      0.00%     73.07% # attempts to use FU when none available
system.switch_cpus1.iq.fu_full::SimdAdd             0      0.00%     73.07% # attempts to use FU when none available
system.switch_cpus1.iq.fu_full::SimdAddAcc            0      0.00%     73.07% # attempts to use FU when none available
system.switch_cpus1.iq.fu_full::SimdAlu             0      0.00%     73.07% # attempts to use FU when none available
system.switch_cpus1.iq.fu_full::SimdCmp             0      0.00%     73.07% # attempts to use FU when none available
system.switch_cpus1.iq.fu_full::SimdCvt             0      0.00%     73.07% # attempts to use FU when none available
system.switch_cpus1.iq.fu_full::SimdMisc            0      0.00%     73.07% # attempts to use FU when none available
system.switch_cpus1.iq.fu_full::SimdMult            0      0.00%     73.07% # attempts to use FU when none available
system.switch_cpus1.iq.fu_full::SimdMultAcc            0      0.00%     73.07% # attempts to use FU when none available
system.switch_cpus1.iq.fu_full::SimdShift            0      0.00%     73.07% # attempts to use FU when none available
system.switch_cpus1.iq.fu_full::SimdShiftAcc            0      0.00%     73.07% # attempts to use FU when none available
system.switch_cpus1.iq.fu_full::SimdSqrt            0      0.00%     73.07% # attempts to use FU when none available
system.switch_cpus1.iq.fu_full::SimdFloatAdd            0      0.00%     73.07% # attempts to use FU when none available
system.switch_cpus1.iq.fu_full::SimdFloatAlu            0      0.00%     73.07% # attempts to use FU when none available
system.switch_cpus1.iq.fu_full::SimdFloatCmp            0      0.00%     73.07% # attempts to use FU when none available
system.switch_cpus1.iq.fu_full::SimdFloatCvt            0      0.00%     73.07% # attempts to use FU when none available
system.switch_cpus1.iq.fu_full::SimdFloatDiv            0      0.00%     73.07% # attempts to use FU when none available
system.switch_cpus1.iq.fu_full::SimdFloatMisc            0      0.00%     73.07% # attempts to use FU when none available
system.switch_cpus1.iq.fu_full::SimdFloatMult            0      0.00%     73.07% # attempts to use FU when none available
system.switch_cpus1.iq.fu_full::SimdFloatMultAcc            0      0.00%     73.07% # attempts to use FU when none available
system.switch_cpus1.iq.fu_full::SimdFloatSqrt            0      0.00%     73.07% # attempts to use FU when none available
system.switch_cpus1.iq.fu_full::MemRead         13439     15.52%     88.59% # attempts to use FU when none available
system.switch_cpus1.iq.fu_full::MemWrite         9883     11.41%    100.00% # attempts to use FU when none available
system.switch_cpus1.iq.fu_full::IprAccess            0      0.00%    100.00% # attempts to use FU when none available
system.switch_cpus1.iq.fu_full::InstPrefetch            0      0.00%    100.00% # attempts to use FU when none available
system.switch_cpus1.iq.FU_type_0::No_OpClass            0      0.00%      0.00% # Type of FU issued
system.switch_cpus1.iq.FU_type_0::IntAlu     11676873     78.58%     78.58% # Type of FU issued
system.switch_cpus1.iq.FU_type_0::IntMult       119238      0.80%     79.38% # Type of FU issued
system.switch_cpus1.iq.FU_type_0::IntDiv            0      0.00%     79.38% # Type of FU issued
system.switch_cpus1.iq.FU_type_0::FloatAdd            0      0.00%     79.38% # Type of FU issued
system.switch_cpus1.iq.FU_type_0::FloatCmp            0      0.00%     79.38% # Type of FU issued
system.switch_cpus1.iq.FU_type_0::FloatCvt            0      0.00%     79.38% # Type of FU issued
system.switch_cpus1.iq.FU_type_0::FloatMult            0      0.00%     79.38% # Type of FU issued
system.switch_cpus1.iq.FU_type_0::FloatDiv            0      0.00%     79.38% # Type of FU issued
system.switch_cpus1.iq.FU_type_0::FloatSqrt            0      0.00%     79.38% # Type of FU issued
system.switch_cpus1.iq.FU_type_0::SimdAdd            0      0.00%     79.38% # Type of FU issued
system.switch_cpus1.iq.FU_type_0::SimdAddAcc            0      0.00%     79.38% # Type of FU issued
system.switch_cpus1.iq.FU_type_0::SimdAlu            0      0.00%     79.38% # Type of FU issued
system.switch_cpus1.iq.FU_type_0::SimdCmp            0      0.00%     79.38% # Type of FU issued
system.switch_cpus1.iq.FU_type_0::SimdCvt            0      0.00%     79.38% # Type of FU issued
system.switch_cpus1.iq.FU_type_0::SimdMisc            0      0.00%     79.38% # Type of FU issued
system.switch_cpus1.iq.FU_type_0::SimdMult            0      0.00%     79.38% # Type of FU issued
system.switch_cpus1.iq.FU_type_0::SimdMultAcc            0      0.00%     79.38% # Type of FU issued
system.switch_cpus1.iq.FU_type_0::SimdShift            0      0.00%     79.38% # Type of FU issued
system.switch_cpus1.iq.FU_type_0::SimdShiftAcc            0      0.00%     79.38% # Type of FU issued
system.switch_cpus1.iq.FU_type_0::SimdSqrt            0      0.00%     79.38% # Type of FU issued
system.switch_cpus1.iq.FU_type_0::SimdFloatAdd            0      0.00%     79.38% # Type of FU issued
system.switch_cpus1.iq.FU_type_0::SimdFloatAlu            0      0.00%     79.38% # Type of FU issued
system.switch_cpus1.iq.FU_type_0::SimdFloatCmp            0      0.00%     79.38% # Type of FU issued
system.switch_cpus1.iq.FU_type_0::SimdFloatCvt            0      0.00%     79.38% # Type of FU issued
system.switch_cpus1.iq.FU_type_0::SimdFloatDiv            0      0.00%     79.38% # Type of FU issued
system.switch_cpus1.iq.FU_type_0::SimdFloatMisc         1088      0.01%     79.39% # Type of FU issued
system.switch_cpus1.iq.FU_type_0::SimdFloatMult            0      0.00%     79.39% # Type of FU issued
system.switch_cpus1.iq.FU_type_0::SimdFloatMultAcc            0      0.00%     79.39% # Type of FU issued
system.switch_cpus1.iq.FU_type_0::SimdFloatSqrt            0      0.00%     79.39% # Type of FU issued
system.switch_cpus1.iq.FU_type_0::MemRead      2526551     17.00%     96.39% # Type of FU issued
system.switch_cpus1.iq.FU_type_0::MemWrite       536745      3.61%    100.00% # Type of FU issued
system.switch_cpus1.iq.FU_type_0::IprAccess            0      0.00%    100.00% # Type of FU issued
system.switch_cpus1.iq.FU_type_0::InstPrefetch            0      0.00%    100.00% # Type of FU issued
system.switch_cpus1.iq.FU_type_0::total      14860495                       # Type of FU issued
system.switch_cpus1.iq.rate                  1.722612                       # Inst issue rate
system.switch_cpus1.iq.fu_busy_cnt              86610                       # FU busy when requested
system.switch_cpus1.iq.fu_busy_rate          0.005828                       # FU busy rate (busy events/executed inst)
system.switch_cpus1.iq.int_inst_queue_reads     38314174                       # Number of integer instruction queue reads
system.switch_cpus1.iq.int_inst_queue_writes     22420776                       # Number of integer instruction queue writes
system.switch_cpus1.iq.int_inst_queue_wakeup_accesses     14353065                       # Number of integer instruction queue wakeup accesses
system.switch_cpus1.iq.fp_inst_queue_reads            0                       # Number of floating instruction queue reads
system.switch_cpus1.iq.fp_inst_queue_writes            0                       # Number of floating instruction queue writes
system.switch_cpus1.iq.fp_inst_queue_wakeup_accesses            0                       # Number of floating instruction queue wakeup accesses
system.switch_cpus1.iq.int_alu_accesses      14947105                       # Number of integer alu accesses
system.switch_cpus1.iq.fp_alu_accesses              0                       # Number of floating point alu accesses
system.switch_cpus1.iew.lsq.thread0.forwLoads        24474                       # Number of loads that had data forwarded from stores
system.switch_cpus1.iew.lsq.thread0.invAddrLoads            0                       # Number of loads ignored due to an invalid address
system.switch_cpus1.iew.lsq.thread0.squashedLoads       782923                       # Number of loads squashed
system.switch_cpus1.iew.lsq.thread0.ignoredResponses           96                       # Number of memory responses ignored because the instruction is squashed
system.switch_cpus1.iew.lsq.thread0.memOrderViolation          115                       # Number of memory ordering violations
system.switch_cpus1.iew.lsq.thread0.squashedStores       168575                       # Number of stores squashed
system.switch_cpus1.iew.lsq.thread0.invAddrSwpfs            0                       # Number of software prefetches ignored due to an invalid address
system.switch_cpus1.iew.lsq.thread0.blockedLoads            0                       # Number of blocked loads due to partial load-store forwarding
system.switch_cpus1.iew.lsq.thread0.rescheduledLoads            0                       # Number of loads that were rescheduled
system.switch_cpus1.iew.lsq.thread0.cacheBlocked            0                       # Number of times an access to memory failed due to the cache being blocked
system.switch_cpus1.iew.iewIdleCycles               0                       # Number of cycles IEW is idle
system.switch_cpus1.iew.iewSquashCycles        731782                       # Number of cycles IEW is squashing
system.switch_cpus1.iew.iewBlockCycles          88863                       # Number of cycles IEW is blocking
system.switch_cpus1.iew.iewUnblockCycles         7951                       # Number of cycles IEW is unblocking
system.switch_cpus1.iew.iewDispatchedInsts     17428456                       # Number of instructions dispatched to IQ
system.switch_cpus1.iew.iewDispSquashedInsts        67509                       # Number of squashed instructions skipped by dispatch
system.switch_cpus1.iew.iewDispLoadInsts      2814821                       # Number of dispatched load instructions
system.switch_cpus1.iew.iewDispStoreInsts       647139                       # Number of dispatched store instructions
system.switch_cpus1.iew.iewDispNonSpecInsts         1250                       # Number of dispatched non-speculative instructions
system.switch_cpus1.iew.iewIQFullEvents          4238                       # Number of times the IQ has become full, causing a stall
system.switch_cpus1.iew.iewLSQFullEvents           47                       # Number of times the LSQ has become full, causing a stall
system.switch_cpus1.iew.memOrderViolationEvents          115                       # Number of memory order violations
system.switch_cpus1.iew.predictedTakenIncorrect       102522                       # Number of branches that were predicted taken incorrectly
system.switch_cpus1.iew.predictedNotTakenIncorrect       118476                       # Number of branches that were predicted not taken incorrectly
system.switch_cpus1.iew.branchMispredicts       220998                       # Number of branch mispredicts detected at execute
system.switch_cpus1.iew.iewExecutedInsts     14543201                       # Number of executed instructions
system.switch_cpus1.iew.iewExecLoadInsts      2418447                       # Number of load instructions executed
system.switch_cpus1.iew.iewExecSquashedInsts       317294                       # Number of squashed instructions skipped in execute
system.switch_cpus1.iew.exec_swp                    0                       # number of swp insts executed
system.switch_cpus1.iew.exec_nop                    0                       # number of nop insts executed
system.switch_cpus1.iew.exec_refs             2941118                       # number of memory reference insts executed
system.switch_cpus1.iew.exec_branches         2179222                       # Number of branches executed
system.switch_cpus1.iew.exec_stores            522671                       # Number of stores executed
system.switch_cpus1.iew.exec_rate            1.685831                       # Inst execution rate
system.switch_cpus1.iew.wb_sent              14379736                       # cumulative count of insts sent to commit
system.switch_cpus1.iew.wb_count             14353065                       # cumulative count of insts written-back
system.switch_cpus1.iew.wb_producers          8651184                       # num instructions producing a value
system.switch_cpus1.iew.wb_consumers         21373425                       # num instructions consuming a value
system.switch_cpus1.iew.wb_penalized                0                       # number of instrctions required to write to 'other' IQ
system.switch_cpus1.iew.wb_rate              1.663791                       # insts written-back per cycle
system.switch_cpus1.iew.wb_fanout            0.404764                       # average fanout of values written-back
system.switch_cpus1.iew.wb_penalized_rate            0                       # fraction of instructions written-back that wrote to 'other' IQ
system.switch_cpus1.commit.commitCommittedInsts     10816892                       # The number of committed instructions
system.switch_cpus1.commit.commitCommittedOps     12312508                       # The number of committed instructions
system.switch_cpus1.commit.commitSquashedInsts      5115989                       # The number of squashed insts skipped by commit
system.switch_cpus1.commit.commitNonSpecStalls         2220                       # The number of times commit has been forced to stall to communicate backwards
system.switch_cpus1.commit.branchMispredicts       199781                       # The number of times a branch was mispredicted
system.switch_cpus1.commit.committed_per_cycle::samples      7755726                       # Number of insts commited each cycle
[...]
system.cpu3.icache.ReadReq_avg_miss_latency::total 53990.589286                       # average ReadReq miss latency
system.cpu3.icache.demand_avg_miss_latency::switch_cpus3.inst 53990.589286                       # average overall miss latency
system.cpu3.icache.demand_avg_miss_latency::total 53990.589286                       # average overall miss latency
system.cpu3.icache.overall_avg_miss_latency::switch_cpus3.inst 53990.589286                       # average overall miss latency
system.cpu3.icache.overall_avg_miss_latency::total 53990.589286                       # average overall miss latency
system.cpu3.icache.blocked_cycles::no_mshrs            0                       # number of cycles access was blocked
system.cpu3.icache.blocked_cycles::no_targets            0                       # number of cycles access was blocked
system.cpu3.icache.blocked::no_mshrs                0                       # number of cycles access was blocked
system.cpu3.icache.blocked::no_targets              0                       # number of cycles access was blocked
system.cpu3.icache.avg_blocked_cycles::no_mshrs          nan                       # average number of cycles each access was blocked
system.cpu3.icache.avg_blocked_cycles::no_targets          nan                       # average number of cycles each access was blocked
system.cpu3.icache.fast_writes                      0                       # number of fast writes performed
system.cpu3.icache.cache_copies                     0                       # number of cache copies performed
system.cpu3.icache.ReadReq_mshr_hits::switch_cpus3.inst           13                       # number of ReadReq MSHR hits
system.cpu3.icache.ReadReq_mshr_hits::total           13                       # number of ReadReq MSHR hits
system.cpu3.icache.demand_mshr_hits::switch_cpus3.inst           13                       # number of demand (read+write) MSHR hits
system.cpu3.icache.demand_mshr_hits::total           13                       # number of demand (read+write) MSHR hits
system.cpu3.icache.overall_mshr_hits::switch_cpus3.inst           13                       # number of overall MSHR hits
system.cpu3.icache.overall_mshr_hits::total           13                       # number of overall MSHR hits
system.cpu3.icache.ReadReq_mshr_misses::switch_cpus3.inst           43                       # number of ReadReq MSHR misses
system.cpu3.icache.ReadReq_mshr_misses::total           43                       # number of ReadReq MSHR misses
system.cpu3.icache.demand_mshr_misses::switch_cpus3.inst           43                       # number of demand (read+write) MSHR misses
system.cpu3.icache.demand_mshr_misses::total           43                       # number of demand (read+write) MSHR misses
system.cpu3.icache.overall_mshr_misses::switch_cpus3.inst           43                       # number of overall MSHR misses
system.cpu3.icache.overall_mshr_misses::total           43                       # number of overall MSHR misses
system.cpu3.icache.ReadReq_mshr_miss_latency::switch_cpus3.inst      2401659                       # number of ReadReq MSHR miss cycles
system.cpu3.icache.ReadReq_mshr_miss_latency::total      2401659                       # number of ReadReq MSHR miss cycles
system.cpu3.icache.demand_mshr_miss_latency::switch_cpus3.inst      2401659                       # number of demand (read+write) MSHR miss cycles
system.cpu3.icache.demand_mshr_miss_latency::total      2401659                       # number of demand (read+write) MSHR miss cycles
system.cpu3.icache.overall_mshr_miss_latency::switch_cpus3.inst      2401659                       # number of overall MSHR miss cycles
system.cpu3.icache.overall_mshr_miss_latency::total      2401659                       # number of overall MSHR miss cycles
system.cpu3.icache.ReadReq_mshr_miss_rate::switch_cpus3.inst     0.000028                       # mshr miss rate for ReadReq accesses
system.cpu3.icache.ReadReq_mshr_miss_rate::total     0.000028                       # mshr miss rate for ReadReq accesses
system.cpu3.icache.demand_mshr_miss_rate::switch_cpus3.inst     0.000028                       # mshr miss rate for demand accesses
system.cpu3.icache.demand_mshr_miss_rate::total     0.000028                       # mshr miss rate for demand accesses
system.cpu3.icache.overall_mshr_miss_rate::switch_cpus3.inst     0.000028                       # mshr miss rate for overall accesses
system.cpu3.icache.overall_mshr_miss_rate::total     0.000028                       # mshr miss rate for overall accesses
system.cpu3.icache.ReadReq_avg_mshr_miss_latency::switch_cpus3.inst 55852.534884                       # average ReadReq mshr miss latency
system.cpu3.icache.ReadReq_avg_mshr_miss_latency::total 55852.534884                       # average ReadReq mshr miss latency
system.cpu3.icache.demand_avg_mshr_miss_latency::switch_cpus3.inst 55852.534884                       # average overall mshr miss latency
system.cpu3.icache.demand_avg_mshr_miss_latency::total 55852.534884                       # average overall mshr miss latency
system.cpu3.icache.overall_avg_mshr_miss_latency::switch_cpus3.inst 55852.534884                       # average overall mshr miss latency
system.cpu3.icache.overall_avg_mshr_miss_latency::total 55852.534884                       # average overall mshr miss latency
system.cpu3.icache.no_allocate_misses               0                       # Number of misses that were no-allocate
system.cpu3.dcache.replacements                  5615                       # number of replacements
system.cpu3.dcache.tagsinuse                      256                       # Cycle average of tags in use
system.cpu3.dcache.total_refs               158200502                       # Total number of references to valid blocks.
system.cpu3.dcache.sampled_refs                  5871                       # Sample count of references to valid blocks.
system.cpu3.dcache.avg_refs              26946.091296                       # Average number of references to valid blocks.
system.cpu3.dcache.warmup_cycle                     0                       # Cycle when the warmup percentage was hit.
system.cpu3.dcache.occ_blocks::switch_cpus3.data   225.757696                       # Average occupied blocks per requestor
system.cpu3.dcache.occ_blocks::cpu3.data    30.242304                       # Average occupied blocks per requestor
system.cpu3.dcache.occ_percent::switch_cpus3.data     0.881866                       # Average percentage of cache occupancy
system.cpu3.dcache.occ_percent::cpu3.data     0.118134                       # Average percentage of cache occupancy
system.cpu3.dcache.occ_percent::total               1                       # Average percentage of cache occupancy
system.cpu3.dcache.ReadReq_hits::switch_cpus3.data      1060185                       # number of ReadReq hits
system.cpu3.dcache.ReadReq_hits::total        1060185                       # number of ReadReq hits
system.cpu3.dcache.WriteReq_hits::switch_cpus3.data       723102                       # number of WriteReq hits
system.cpu3.dcache.WriteReq_hits::total        723102                       # number of WriteReq hits
system.cpu3.dcache.LoadLockedReq_hits::switch_cpus3.data         1912                       # number of LoadLockedReq hits
system.cpu3.dcache.LoadLockedReq_hits::total         1912                       # number of LoadLockedReq hits
system.cpu3.dcache.StoreCondReq_hits::switch_cpus3.data         1702                       # number of StoreCondReq hits
system.cpu3.dcache.StoreCondReq_hits::total         1702                       # number of StoreCondReq hits
system.cpu3.dcache.demand_hits::switch_cpus3.data      1783287                       # number of demand (read+write) hits
system.cpu3.dcache.demand_hits::total         1783287                       # number of demand (read+write) hits
system.cpu3.dcache.overall_hits::switch_cpus3.data      1783287                       # number of overall hits
system.cpu3.dcache.overall_hits::total        1783287                       # number of overall hits
system.cpu3.dcache.ReadReq_misses::switch_cpus3.data        14342                       # number of ReadReq misses
system.cpu3.dcache.ReadReq_misses::total        14342                       # number of ReadReq misses
system.cpu3.dcache.WriteReq_misses::switch_cpus3.data          463                       # number of WriteReq misses
system.cpu3.dcache.WriteReq_misses::total          463                       # number of WriteReq misses
system.cpu3.dcache.demand_misses::switch_cpus3.data        14805                       # number of demand (read+write) misses
system.cpu3.dcache.demand_misses::total         14805                       # number of demand (read+write) misses
system.cpu3.dcache.overall_misses::switch_cpus3.data        14805                       # number of overall misses
system.cpu3.dcache.overall_misses::total        14805                       # number of overall misses
system.cpu3.dcache.ReadReq_miss_latency::switch_cpus3.data    573175875                       # number of ReadReq miss cycles
system.cpu3.dcache.ReadReq_miss_latency::total    573175875                       # number of ReadReq miss cycles
system.cpu3.dcache.WriteReq_miss_latency::switch_cpus3.data     21483135                       # number of WriteReq miss cycles
system.cpu3.dcache.WriteReq_miss_latency::total     21483135                       # number of WriteReq miss cycles
system.cpu3.dcache.demand_miss_latency::switch_cpus3.data    594659010                       # number of demand (read+write) miss cycles
system.cpu3.dcache.demand_miss_latency::total    594659010                       # number of demand (read+write) miss cycles
system.cpu3.dcache.overall_miss_latency::switch_cpus3.data    594659010                       # number of overall miss cycles
system.cpu3.dcache.overall_miss_latency::total    594659010                       # number of overall miss cycles
system.cpu3.dcache.ReadReq_accesses::switch_cpus3.data      1074527                       # number of ReadReq accesses(hits+misses)
system.cpu3.dcache.ReadReq_accesses::total      1074527                       # number of ReadReq accesses(hits+misses)
system.cpu3.dcache.WriteReq_accesses::switch_cpus3.data       723565                       # number of WriteReq accesses(hits+misses)
system.cpu3.dcache.WriteReq_accesses::total       723565                       # number of WriteReq accesses(hits+misses)
system.cpu3.dcache.LoadLockedReq_accesses::switch_cpus3.data         1912                       # number of LoadLockedReq accesses(hits+misses)
system.cpu3.dcache.LoadLockedReq_accesses::total         1912                       # number of LoadLockedReq accesses(hits+misses)
system.cpu3.dcache.StoreCondReq_accesses::switch_cpus3.data         1702                       # number of StoreCondReq accesses(hits+misses)
system.cpu3.dcache.StoreCondReq_accesses::total         1702                       # number of StoreCondReq accesses(hits+misses)
system.cpu3.dcache.demand_accesses::switch_cpus3.data      1798092                       # number of demand (read+write) accesses
system.cpu3.dcache.demand_accesses::total      1798092                       # number of demand (read+write) accesses
system.cpu3.dcache.overall_accesses::switch_cpus3.data      1798092                       # number of overall (read+write) accesses
system.cpu3.dcache.overall_accesses::total      1798092                       # number of overall (read+write) accesses
system.cpu3.dcache.ReadReq_miss_rate::switch_cpus3.data     0.013347                       # miss rate for ReadReq accesses
system.cpu3.dcache.ReadReq_miss_rate::total     0.013347                       # miss rate for ReadReq accesses
system.cpu3.dcache.WriteReq_miss_rate::switch_cpus3.data     0.000640                       # miss rate for WriteReq accesses
system.cpu3.dcache.WriteReq_miss_rate::total     0.000640                       # miss rate for WriteReq accesses
system.cpu3.dcache.demand_miss_rate::switch_cpus3.data     0.008234                       # miss rate for demand accesses
system.cpu3.dcache.demand_miss_rate::total     0.008234                       # miss rate for demand accesses
system.cpu3.dcache.overall_miss_rate::switch_cpus3.data     0.008234                       # miss rate for overall accesses
system.cpu3.dcache.overall_miss_rate::total     0.008234                       # miss rate for overall accesses
system.cpu3.dcache.ReadReq_avg_miss_latency::switch_cpus3.data 39964.849742                       # average ReadReq miss latency
system.cpu3.dcache.ReadReq_avg_miss_latency::total 39964.849742                       # average ReadReq miss latency
system.cpu3.dcache.WriteReq_avg_miss_latency::switch_cpus3.data 46399.859611                       # average WriteReq miss latency
system.cpu3.dcache.WriteReq_avg_miss_latency::total 46399.859611                       # average WriteReq miss latency
system.cpu3.dcache.demand_avg_miss_latency::switch_cpus3.data 40166.093212                       # average overall miss latency
system.cpu3.dcache.demand_avg_miss_latency::total 40166.093212                       # average overall miss latency
system.cpu3.dcache.overall_avg_miss_latency::switch_cpus3.data 40166.093212                       # average overall miss latency
system.cpu3.dcache.overall_avg_miss_latency::total 40166.093212                       # average overall miss latency
system.cpu3.dcache.blocked_cycles::no_mshrs            0                       # number of cycles access was blocked
system.cpu3.dcache.blocked_cycles::no_targets        29933                       # number of cycles access was blocked
system.cpu3.dcache.blocked::no_mshrs                0                       # number of cycles access was blocked
system.cpu3.dcache.blocked::no_targets              1                       # number of cycles access was blocked
system.cpu3.dcache.avg_blocked_cycles::no_mshrs          nan                       # average number of cycles each access was blocked
system.cpu3.dcache.avg_blocked_cycles::no_targets        29933                       # average number of cycles each access was blocked
system.cpu3.dcache.fast_writes                      0                       # number of fast writes performed
system.cpu3.dcache.cache_copies                     0                       # number of cache copies performed
system.cpu3.dcache.writebacks::writebacks         1971                       # number of writebacks
system.cpu3.dcache.writebacks::total             1971                       # number of writebacks
system.cpu3.dcache.ReadReq_mshr_hits::switch_cpus3.data         8781                       # number of ReadReq MSHR hits
system.cpu3.dcache.ReadReq_mshr_hits::total         8781                       # number of ReadReq MSHR hits
system.cpu3.dcache.WriteReq_mshr_hits::switch_cpus3.data          409                       # number of WriteReq MSHR hits
system.cpu3.dcache.WriteReq_mshr_hits::total          409                       # number of WriteReq MSHR hits
system.cpu3.dcache.demand_mshr_hits::switch_cpus3.data         9190                       # number of demand (read+write) MSHR hits
system.cpu3.dcache.demand_mshr_hits::total         9190                       # number of demand (read+write) MSHR hits
system.cpu3.dcache.overall_mshr_hits::switch_cpus3.data         9190                       # number of overall MSHR hits
system.cpu3.dcache.overall_mshr_hits::total         9190                       # number of overall MSHR hits
system.cpu3.dcache.ReadReq_mshr_misses::switch_cpus3.data         5561                       # number of ReadReq MSHR misses
system.cpu3.dcache.ReadReq_mshr_misses::total         5561                       # number of ReadReq MSHR misses
system.cpu3.dcache.WriteReq_mshr_misses::switch_cpus3.data           54                       # number of WriteReq MSHR misses
system.cpu3.dcache.WriteReq_mshr_misses::total           54                       # number of WriteReq MSHR misses
system.cpu3.dcache.demand_mshr_misses::switch_cpus3.data         5615                       # number of demand (read+write) MSHR misses
system.cpu3.dcache.demand_mshr_misses::total         5615                       # number of demand (read+write) MSHR misses
system.cpu3.dcache.overall_mshr_misses::switch_cpus3.data         5615                       # number of overall MSHR misses
system.cpu3.dcache.overall_mshr_misses::total         5615                       # number of overall MSHR misses
system.cpu3.dcache.ReadReq_mshr_miss_latency::switch_cpus3.data    132999536                       # number of ReadReq MSHR miss cycles
system.cpu3.dcache.ReadReq_mshr_miss_latency::total    132999536                       # number of ReadReq MSHR miss cycles
system.cpu3.dcache.WriteReq_mshr_miss_latency::switch_cpus3.data      1478574                       # number of WriteReq MSHR miss cycles
system.cpu3.dcache.WriteReq_mshr_miss_latency::total      1478574                       # number of WriteReq MSHR miss cycles
system.cpu3.dcache.demand_mshr_miss_latency::switch_cpus3.data    134478110                       # number of demand (read+write) MSHR miss cycles
system.cpu3.dcache.demand_mshr_miss_latency::total    134478110                       # number of demand (read+write) MSHR miss cycles
system.cpu3.dcache.overall_mshr_miss_latency::switch_cpus3.data    134478110                       # number of overall MSHR miss cycles
system.cpu3.dcache.overall_mshr_miss_latency::total    134478110                       # number of overall MSHR miss cycles
system.cpu3.dcache.ReadReq_mshr_miss_rate::switch_cpus3.data     0.005175                       # mshr miss rate for ReadReq accesses
system.cpu3.dcache.ReadReq_mshr_miss_rate::total     0.005175                       # mshr miss rate for ReadReq accesses
system.cpu3.dcache.WriteReq_mshr_miss_rate::switch_cpus3.data     0.000075                       # mshr miss rate for WriteReq accesses
system.cpu3.dcache.WriteReq_mshr_miss_rate::total     0.000075                       # mshr miss rate for WriteReq accesses
system.cpu3.dcache.demand_mshr_miss_rate::switch_cpus3.data     0.003123                       # mshr miss rate for demand accesses
system.cpu3.dcache.demand_mshr_miss_rate::total     0.003123                       # mshr miss rate for demand accesses
system.cpu3.dcache.overall_mshr_miss_rate::switch_cpus3.data     0.003123                       # mshr miss rate for overall accesses
system.cpu3.dcache.overall_mshr_miss_rate::total     0.003123                       # mshr miss rate for overall accesses
system.cpu3.dcache.ReadReq_avg_mshr_miss_latency::switch_cpus3.data 23916.478331                       # average ReadReq mshr miss latency
system.cpu3.dcache.ReadReq_avg_mshr_miss_latency::total 23916.478331                       # average ReadReq mshr miss latency
system.cpu3.dcache.WriteReq_avg_mshr_miss_latency::switch_cpus3.data        27381                       # average WriteReq mshr miss latency
system.cpu3.dcache.WriteReq_avg_mshr_miss_latency::total        27381                       # average WriteReq mshr miss latency
system.cpu3.dcache.demand_avg_mshr_miss_latency::switch_cpus3.data 23949.796972                       # average overall mshr miss latency
system.cpu3.dcache.demand_avg_mshr_miss_latency::total 23949.796972                       # average overall mshr miss latency
system.cpu3.dcache.overall_avg_mshr_miss_latency::switch_cpus3.data 23949.796972                       # average overall mshr miss latency
system.cpu3.dcache.overall_avg_mshr_miss_latency::total 23949.796972                       # average overall mshr miss latency
system.cpu3.dcache.no_allocate_misses               0                       # Number of misses that were no-allocate

---------- End Simulation Statistics   ----------
