
---------- Begin Simulation Statistics ----------
sim_seconds                                  0.001199                       # Number of seconds simulated
sim_ticks                                  1199071824                       # Number of ticks simulated
final_tick                               449094151464                       # Number of ticks from beginning of simulation (restored from checkpoints and never reset)
sim_freq                                 1000000000000                       # Frequency of simulated ticks
host_inst_rate                                 204255                       # Simulator instruction rate (inst/s)
host_op_rate                                   265860                       # Simulator op (including micro ops) rate (op/s)
host_tick_rate                                  37054                       # Simulator tick rate (ticks/s)
host_mem_usage                               67346520                       # Number of bytes of host memory used
host_seconds                                 32360.19                       # Real time elapsed on the host
sim_insts                                  6609726568                       # Number of instructions simulated
sim_ops                                    8603295745                       # Number of ops (including micro ops) simulated
system.physmem.bytes_read::switch_cpus0.inst         3328                       # Number of bytes read from this memory
system.physmem.bytes_read::switch_cpus0.data        23296                       # Number of bytes read from this memory
system.physmem.bytes_read::switch_cpus1.inst         3328                       # Number of bytes read from this memory
system.physmem.bytes_read::switch_cpus1.data        11776                       # Number of bytes read from this memory
system.physmem.bytes_read::switch_cpus2.inst         3456                       # Number of bytes read from this memory
system.physmem.bytes_read::switch_cpus2.data        11776                       # Number of bytes read from this memory
system.physmem.bytes_read::switch_cpus3.inst         3200                       # Number of bytes read from this memory
system.physmem.bytes_read::switch_cpus3.data        22656                       # Number of bytes read from this memory
system.physmem.bytes_read::switch_cpus4.inst         3456                       # Number of bytes read from this memory
system.physmem.bytes_read::switch_cpus4.data        41216                       # Number of bytes read from this memory
system.physmem.bytes_read::switch_cpus5.inst         3584                       # Number of bytes read from this memory
system.physmem.bytes_read::switch_cpus5.data        16384                       # Number of bytes read from this memory
system.physmem.bytes_read::switch_cpus6.inst         3200                       # Number of bytes read from this memory
system.physmem.bytes_read::switch_cpus6.data        75392                       # Number of bytes read from this memory
system.physmem.bytes_read::switch_cpus7.inst         3712                       # Number of bytes read from this memory
system.physmem.bytes_read::switch_cpus7.data        17792                       # Number of bytes read from this memory
system.physmem.bytes_read::total               247552                       # Number of bytes read from this memory
system.physmem.bytes_inst_read::switch_cpus0.inst         3328                       # Number of instructions bytes read from this memory
system.physmem.bytes_inst_read::switch_cpus1.inst         3328                       # Number of instructions bytes read from this memory
system.physmem.bytes_inst_read::switch_cpus2.inst         3456                       # Number of instructions bytes read from this memory
system.physmem.bytes_inst_read::switch_cpus3.inst         3200                       # Number of instructions bytes read from this memory
system.physmem.bytes_inst_read::switch_cpus4.inst         3456                       # Number of instructions bytes read from this memory
system.physmem.bytes_inst_read::switch_cpus5.inst         3584                       # Number of instructions bytes read from this memory
system.physmem.bytes_inst_read::switch_cpus6.inst         3200                       # Number of instructions bytes read from this memory
system.physmem.bytes_inst_read::switch_cpus7.inst         3712                       # Number of instructions bytes read from this memory
system.physmem.bytes_inst_read::total           27264                       # Number of instructions bytes read from this memory
system.physmem.bytes_written::writebacks        98304                       # Number of bytes written to this memory
system.physmem.bytes_written::total             98304                       # Number of bytes written to this memory
system.physmem.num_reads::switch_cpus0.inst           26                       # Number of read requests responded to by this memory
system.physmem.num_reads::switch_cpus0.data          182                       # Number of read requests responded to by this memory
system.physmem.num_reads::switch_cpus1.inst           26                       # Number of read requests responded to by this memory
system.physmem.num_reads::switch_cpus1.data           92                       # Number of read requests responded to by this memory
system.physmem.num_reads::switch_cpus2.inst           27                       # Number of read requests responded to by this memory
system.physmem.num_reads::switch_cpus2.data           92                       # Number of read requests responded to by this memory
system.physmem.num_reads::switch_cpus3.inst           25                       # Number of read requests responded to by this memory
system.physmem.num_reads::switch_cpus3.data          177                       # Number of read requests responded to by this memory
system.physmem.num_reads::switch_cpus4.inst           27                       # Number of read requests responded to by this memory
system.physmem.num_reads::switch_cpus4.data          322                       # Number of read requests responded to by this memory
system.physmem.num_reads::switch_cpus5.inst           28                       # Number of read requests responded to by this memory
system.physmem.num_reads::switch_cpus5.data          128                       # Number of read requests responded to by this memory
system.physmem.num_reads::switch_cpus6.inst           25                       # Number of read requests responded to by this memory
system.physmem.num_reads::switch_cpus6.data          589                       # Number of read requests responded to by this memory
system.physmem.num_reads::switch_cpus7.inst           29                       # Number of read requests responded to by this memory
system.physmem.num_reads::switch_cpus7.data          139                       # Number of read requests responded to by this memory
system.physmem.num_reads::total                  1934                       # Number of read requests responded to by this memory
system.physmem.num_writes::writebacks             768                       # Number of write requests responded to by this memory
system.physmem.num_writes::functional               0                       # Number of write requests responded to by this memory
system.physmem.num_writes::interrupt                0                       # Number of write requests responded to by this memory
system.physmem.num_writes::switch_cpus0.dtb.walker            0                       # Number of write requests responded to by this memory
system.physmem.num_writes::switch_cpus0.itb.walker            0                       # Number of write requests responded to by this memory
system.physmem.num_writes::switch_cpus0.inst            0                       # Number of write requests responded to by this memory
system.physmem.num_writes::switch_cpus0.data            0                       # Number of write requests responded to by this memory
system.physmem.num_writes::switch_cpus1.dtb.walker            0                       # Number of write requests responded to by this memory
system.physmem.num_writes::switch_cpus1.itb.walker            0                       # Number of write requests responded to by this memory
system.physmem.num_writes::switch_cpus1.inst            0                       # Number of write requests responded to by this memory
system.physmem.num_writes::switch_cpus1.data            0                       # Number of write requests responded to by this memory
system.physmem.num_writes::switch_cpus2.dtb.walker            0                       # Number of write requests responded to by this memory
system.physmem.num_writes::switch_cpus2.itb.walker            0                       # Number of write requests responded to by this memory
system.physmem.num_writes::switch_cpus2.inst            0                       # Number of write requests responded to by this memory
system.physmem.num_writes::switch_cpus2.data            0                       # Number of write requests responded to by this memory
system.physmem.num_writes::switch_cpus3.dtb.walker            0                       # Number of write requests responded to by this memory
system.physmem.num_writes::switch_cpus3.itb.walker            0                       # Number of write requests responded to by this memory
system.physmem.num_writes::switch_cpus3.inst            0                       # Number of write requests responded to by this memory
system.physmem.num_writes::switch_cpus3.data            0                       # Number of write requests responded to by this memory
system.physmem.num_writes::switch_cpus4.dtb.walker            0                       # Number of write requests responded to by this memory
system.physmem.num_writes::switch_cpus4.itb.walker            0                       # Number of write requests responded to by this memory
system.physmem.num_writes::switch_cpus4.inst            0                       # Number of write requests responded to by this memory
system.physmem.num_writes::switch_cpus4.data            0                       # Number of write requests responded to by this memory
system.physmem.num_writes::switch_cpus5.dtb.walker            0                       # Number of write requests responded to by this memory
system.physmem.num_writes::switch_cpus5.itb.walker            0                       # Number of write requests responded to by this memory
system.physmem.num_writes::switch_cpus5.inst            0                       # Number of write requests responded to by this memory
system.physmem.num_writes::switch_cpus5.data            0                       # Number of write requests responded to by this memory
system.physmem.num_writes::switch_cpus6.dtb.walker            0                       # Number of write requests responded to by this memory
system.physmem.num_writes::switch_cpus6.itb.walker            0                       # Number of write requests responded to by this memory
system.physmem.num_writes::switch_cpus6.inst            0                       # Number of write requests responded to by this memory
system.physmem.num_writes::switch_cpus6.data            0                       # Number of write requests responded to by this memory
system.physmem.num_writes::switch_cpus7.dtb.walker            0                       # Number of write requests responded to by this memory
system.physmem.num_writes::switch_cpus7.itb.walker            0                       # Number of write requests responded to by this memory
system.physmem.num_writes::switch_cpus7.inst            0                       # Number of write requests responded to by this memory
system.physmem.num_writes::switch_cpus7.data            0                       # Number of write requests responded to by this memory
system.physmem.num_writes::cpu0.dtb.walker            0                       # Number of write requests responded to by this memory
system.physmem.num_writes::cpu0.itb.walker            0                       # Number of write requests responded to by this memory
system.physmem.num_writes::cpu0.inst                0                       # Number of write requests responded to by this memory
system.physmem.num_writes::cpu0.data                0                       # Number of write requests responded to by this memory
system.physmem.num_writes::cpu1.dtb.walker            0                       # Number of write requests responded to by this memory
system.physmem.num_writes::cpu1.itb.walker            0                       # Number of write requests responded to by this memory
system.physmem.num_writes::cpu1.inst                0                       # Number of write requests responded to by this memory
system.physmem.num_writes::cpu1.data                0                       # Number of write requests responded to by this memory
system.physmem.num_writes::cpu2.dtb.walker            0                       # Number of write requests responded to by this memory
system.physmem.num_writes::cpu2.itb.walker            0                       # Number of write requests responded to by this memory
system.physmem.num_writes::cpu2.inst                0                       # Number of write requests responded to by this memory
system.physmem.num_writes::cpu2.data                0                       # Number of write requests responded to by this memory
system.physmem.num_writes::cpu3.dtb.walker            0                       # Number of write requests responded to by this memory
system.physmem.num_writes::cpu3.itb.walker            0                       # Number of write requests responded to by this memory
system.physmem.num_writes::cpu3.inst                0                       # Number of write requests responded to by this memory
system.physmem.num_writes::cpu3.data                0                       # Number of write requests responded to by this memory
system.physmem.num_writes::cpu4.dtb.walker            0                       # Number of write requests responded to by this memory
system.physmem.num_writes::cpu4.itb.walker            0                       # Number of write requests responded to by this memory
system.physmem.num_writes::cpu4.inst                0                       # Number of write requests responded to by this memory
system.physmem.num_writes::cpu4.data                0                       # Number of write requests responded to by this memory
system.physmem.num_writes::cpu5.dtb.walker            0                       # Number of write requests responded to by this memory
system.physmem.num_writes::cpu5.itb.walker            0                       # Number of write requests responded to by this memory
system.physmem.num_writes::cpu5.inst                0                       # Number of write requests responded to by this memory
system.physmem.num_writes::cpu5.data                0                       # Number of write requests responded to by this memory
system.physmem.num_writes::cpu6.dtb.walker            0                       # Number of write requests responded to by this memory
system.physmem.num_writes::cpu6.itb.walker            0                       # Number of write requests responded to by this memory
system.physmem.num_writes::cpu6.inst                0                       # Number of write requests responded to by this memory
system.physmem.num_writes::cpu6.data                0                       # Number of write requests responded to by this memory
system.physmem.num_writes::cpu7.dtb.walker            0                       # Number of write requests responded to by this memory
system.physmem.num_writes::cpu7.itb.walker            0                       # Number of write requests responded to by this memory
system.physmem.num_writes::cpu7.inst                0                       # Number of write requests responded to by this memory
system.physmem.num_writes::cpu7.data                0                       # Number of write requests responded to by this memory
system.physmem.num_writes::total                  768                       # Number of write requests responded to by this memory
system.physmem.bw_read::switch_cpus0.inst      2775480                       # Total read bandwidth from this memory (bytes/s)
system.physmem.bw_read::switch_cpus0.data     19428361                       # Total read bandwidth from this memory (bytes/s)
system.physmem.bw_read::switch_cpus1.inst      2775480                       # Total read bandwidth from this memory (bytes/s)
system.physmem.bw_read::switch_cpus1.data      9820930                       # Total read bandwidth from this memory (bytes/s)
system.physmem.bw_read::switch_cpus2.inst      2882229                       # Total read bandwidth from this memory (bytes/s)
system.physmem.bw_read::switch_cpus2.data      9820930                       # Total read bandwidth from this memory (bytes/s)
system.physmem.bw_read::switch_cpus3.inst      2668731                       # Total read bandwidth from this memory (bytes/s)
system.physmem.bw_read::switch_cpus3.data     18894615                       # Total read bandwidth from this memory (bytes/s)
system.physmem.bw_read::switch_cpus4.inst      2882229                       # Total read bandwidth from this memory (bytes/s)
system.physmem.bw_read::switch_cpus4.data     34373254                       # Total read bandwidth from this memory (bytes/s)
system.physmem.bw_read::switch_cpus5.inst      2988979                       # Total read bandwidth from this memory (bytes/s)
system.physmem.bw_read::switch_cpus5.data     13663902                       # Total read bandwidth from this memory (bytes/s)
system.physmem.bw_read::switch_cpus6.inst      2668731                       # Total read bandwidth from this memory (bytes/s)
system.physmem.bw_read::switch_cpus6.data     62875299                       # Total read bandwidth from this memory (bytes/s)
system.physmem.bw_read::switch_cpus7.inst      3095728                       # Total read bandwidth from this memory (bytes/s)
system.physmem.bw_read::switch_cpus7.data     14838144                       # Total read bandwidth from this memory (bytes/s)
system.physmem.bw_read::total               206453021                       # Total read bandwidth from this memory (bytes/s)
system.physmem.bw_inst_read::switch_cpus0.inst      2775480                       # Instruction read bandwidth from this memory (bytes/s)
system.physmem.bw_inst_read::switch_cpus1.inst      2775480                       # Instruction read bandwidth from this memory (bytes/s)
system.physmem.bw_inst_read::switch_cpus2.inst      2882229                       # Instruction read bandwidth from this memory (bytes/s)
system.physmem.bw_inst_read::switch_cpus3.inst      2668731                       # Instruction read bandwidth from this memory (bytes/s)
system.physmem.bw_inst_read::switch_cpus4.inst      2882229                       # Instruction read bandwidth from this memory (bytes/s)
system.physmem.bw_inst_read::switch_cpus5.inst      2988979                       # Instruction read bandwidth from this memory (bytes/s)
system.physmem.bw_inst_read::switch_cpus6.inst      2668731                       # Instruction read bandwidth from this memory (bytes/s)
system.physmem.bw_inst_read::switch_cpus7.inst      3095728                       # Instruction read bandwidth from this memory (bytes/s)
system.physmem.bw_inst_read::total           22737587                       # Instruction read bandwidth from this memory (bytes/s)
system.physmem.bw_write::writebacks          81983413                       # Write bandwidth from this memory (bytes/s)
system.physmem.bw_write::total               81983413                       # Write bandwidth from this memory (bytes/s)
system.physmem.bw_total::writebacks          81983413                       # Total bandwidth to/from this memory (bytes/s)
system.physmem.bw_total::switch_cpus0.inst      2775480                       # Total bandwidth to/from this memory (bytes/s)
system.physmem.bw_total::switch_cpus0.data     19428361                       # Total bandwidth to/from this memory (bytes/s)
system.physmem.bw_total::switch_cpus1.inst      2775480                       # Total bandwidth to/from this memory (bytes/s)
system.physmem.bw_total::switch_cpus1.data      9820930                       # Total bandwidth to/from this memory (bytes/s)
system.physmem.bw_total::switch_cpus2.inst      2882229                       # Total bandwidth to/from this memory (bytes/s)
system.physmem.bw_total::switch_cpus2.data      9820930                       # Total bandwidth to/from this memory (bytes/s)
system.physmem.bw_total::switch_cpus3.inst      2668731                       # Total bandwidth to/from this memory (bytes/s)
system.physmem.bw_total::switch_cpus3.data     18894615                       # Total bandwidth to/from this memory (bytes/s)
system.physmem.bw_total::switch_cpus4.inst      2882229                       # Total bandwidth to/from this memory (bytes/s)
system.physmem.bw_total::switch_cpus4.data     34373254                       # Total bandwidth to/from this memory (bytes/s)
system.physmem.bw_total::switch_cpus5.inst      2988979                       # Total bandwidth to/from this memory (bytes/s)
system.physmem.bw_total::switch_cpus5.data     13663902                       # Total bandwidth to/from this memory (bytes/s)
system.physmem.bw_total::switch_cpus6.inst      2668731                       # Total bandwidth to/from this memory (bytes/s)
system.physmem.bw_total::switch_cpus6.data     62875299                       # Total bandwidth to/from this memory (bytes/s)
system.physmem.bw_total::switch_cpus7.inst      3095728                       # Total bandwidth to/from this memory (bytes/s)
system.physmem.bw_total::switch_cpus7.data     14838144                       # Total bandwidth to/from this memory (bytes/s)
system.physmem.bw_total::total              288436433                       # Total bandwidth to/from this memory (bytes/s)
system.switch_cpus0.dtb.inst_hits                   0                       # ITB inst hits
system.switch_cpus0.dtb.inst_misses                 0                       # ITB inst misses
system.switch_cpus0.dtb.read_hits                   0                       # DTB read hits
system.switch_cpus0.dtb.read_misses                 0                       # DTB read misses
system.switch_cpus0.dtb.write_hits                  0                       # DTB write hits
system.switch_cpus0.dtb.write_misses                0                       # DTB write misses
system.switch_cpus0.dtb.flush_tlb                   0                       # Number of times complete TLB was flushed
system.switch_cpus0.dtb.flush_tlb_mva               0                       # Number of times TLB was flushed by MVA
system.switch_cpus0.dtb.flush_tlb_mva_asid            0                       # Number of times TLB was flushed by MVA & ASID
system.switch_cpus0.dtb.flush_tlb_asid              0                       # Number of times TLB was flushed by ASID
system.switch_cpus0.dtb.flush_entries               0                       # Number of entries that have been flushed from TLB
system.switch_cpus0.dtb.align_faults                0                       # Number of TLB faults due to alignment restrictions
system.switch_cpus0.dtb.prefetch_faults             0                       # Number of TLB faults due to prefetch
system.switch_cpus0.dtb.domain_faults               0                       # Number of TLB faults due to domain restrictions
system.switch_cpus0.dtb.perms_faults                0                       # Number of TLB faults due to permissions restrictions
system.switch_cpus0.dtb.read_accesses               0                       # DTB read accesses
system.switch_cpus0.dtb.write_accesses              0                       # DTB write accesses
system.switch_cpus0.dtb.inst_accesses               0                       # ITB inst accesses
system.switch_cpus0.dtb.hits                        0                       # DTB hits
system.switch_cpus0.dtb.misses                      0                       # DTB misses
system.switch_cpus0.dtb.accesses                    0                       # DTB accesses
system.switch_cpus0.itb.inst_hits                   0                       # ITB inst hits
system.switch_cpus0.itb.inst_misses                 0                       # ITB inst misses
system.switch_cpus0.itb.read_hits                   0                       # DTB read hits
system.switch_cpus0.itb.read_misses                 0                       # DTB read misses
system.switch_cpus0.itb.write_hits                  0                       # DTB write hits
system.switch_cpus0.itb.write_misses                0                       # DTB write misses
system.switch_cpus0.itb.flush_tlb                   0                       # Number of times complete TLB was flushed
system.switch_cpus0.itb.flush_tlb_mva               0                       # Number of times TLB was flushed by MVA
system.switch_cpus0.itb.flush_tlb_mva_asid            0                       # Number of times TLB was flushed by MVA & ASID
system.switch_cpus0.itb.flush_tlb_asid              0                       # Number of times TLB was flushed by ASID
system.switch_cpus0.itb.flush_entries               0                       # Number of entries that have been flushed from TLB
system.switch_cpus0.itb.align_faults                0                       # Number of TLB faults due to alignment restrictions
system.switch_cpus0.itb.prefetch_faults             0                       # Number of TLB faults due to prefetch
system.switch_cpus0.itb.domain_faults               0                       # Number of TLB faults due to domain restrictions
system.switch_cpus0.itb.perms_faults                0                       # Number of TLB faults due to permissions restrictions
system.switch_cpus0.itb.read_accesses               0                       # DTB read accesses
system.switch_cpus0.itb.write_accesses              0                       # DTB write accesses
system.switch_cpus0.itb.inst_accesses               0                       # ITB inst accesses
system.switch_cpus0.itb.hits                        0                       # DTB hits
system.switch_cpus0.itb.misses                      0                       # DTB misses
system.switch_cpus0.itb.accesses                    0                       # DTB accesses
system.cpu0.workload.num_syscalls                   1                       # Number of system calls
system.switch_cpus0.numCycles                 2875473                       # number of cpu cycles simulated
system.switch_cpus0.numWorkItemsStarted             0                       # number of work items this cpu started
system.switch_cpus0.numWorkItemsCompleted            0                       # number of work items this cpu completed
system.switch_cpus0.BPredUnit.lookups          221920                       # Number of BP lookups
system.switch_cpus0.BPredUnit.condPredicted       196456                       # Number of conditional branches predicted
system.switch_cpus0.BPredUnit.condIncorrect        19311                       # Number of conditional branches incorrect
system.switch_cpus0.BPredUnit.BTBLookups       141798                       # Number of BTB lookups
system.switch_cpus0.BPredUnit.BTBHits          137835                       # Number of BTB hits
system.switch_cpus0.BPredUnit.BTBCorrect            0                       # Number of correct BTB predictions (this stat may not work properly.
system.switch_cpus0.BPredUnit.usedRAS           13664                       # Number of times the RAS was used to get a target.
system.switch_cpus0.BPredUnit.RASInCorrect          625                       # Number of incorrect RAS predictions.
system.switch_cpus0.fetch.icacheStallCycles      2306481                       # Number of cycles fetch is stalled on an Icache miss
system.switch_cpus0.fetch.Insts               1258337                       # Number of instructions fetch has processed
system.switch_cpus0.fetch.Branches             221920                       # Number of branches that fetch encountered
system.switch_cpus0.fetch.predictedBranches       151499                       # Number of branches that fetch has predicted taken
system.switch_cpus0.fetch.Cycles               278588                       # Number of cycles fetch has run and was not squashing or blocked
system.switch_cpus0.fetch.SquashCycles          63026                       # Number of cycles fetch has spent squashing
system.switch_cpus0.fetch.BlockedCycles         34984                       # Number of cycles fetch has spent blocked
system.switch_cpus0.fetch.CacheLines           140815                       # Number of cache lines fetched
system.switch_cpus0.fetch.IcacheSquashes        18740                       # Number of outstanding Icache misses that were squashed
system.switch_cpus0.fetch.rateDist::samples      2663648                       # Number of instructions fetched each cycle (Total)
system.switch_cpus0.fetch.rateDist::mean     0.532751                       # Number of instructions fetched each cycle (Total)
system.switch_cpus0.fetch.rateDist::stdev     1.788054                       # Number of instructions fetched each cycle (Total)
system.switch_cpus0.fetch.rateDist::underflows            0      0.00%      0.00% # Number of instructions fetched each cycle (Total)
system.switch_cpus0.fetch.rateDist::0         2385060     89.54%     89.54% # Number of instructions fetched each cycle (Total)
system.switch_cpus0.fetch.rateDist::1           41062      1.54%     91.08% # Number of instructions fetched each cycle (Total)
system.switch_cpus0.fetch.rateDist::2           21750      0.82%     91.90% # Number of instructions fetched each cycle (Total)
system.switch_cpus0.fetch.rateDist::3           40514      1.52%     93.42% # Number of instructions fetched each cycle (Total)
system.switch_cpus0.fetch.rateDist::4           13600      0.51%     93.93% # Number of instructions fetched each cycle (Total)
system.switch_cpus0.fetch.rateDist::5           37419      1.40%     95.34% # Number of instructions fetched each cycle (Total)
system.switch_cpus0.fetch.rateDist::6            5978      0.22%     95.56% # Number of instructions fetched each cycle (Total)
system.switch_cpus0.fetch.rateDist::7           10525      0.40%     95.96% # Number of instructions fetched each cycle (Total)
system.switch_cpus0.fetch.rateDist::8          107740      4.04%    100.00% # Number of instructions fetched each cycle (Total)
system.switch_cpus0.fetch.rateDist::overflows            0      0.00%    100.00% # Number of instructions fetched each cycle (Total)
system.switch_cpus0.fetch.rateDist::min_value            0                       # Number of instructions fetched each cycle (Total)
system.switch_cpus0.fetch.rateDist::max_value            8                       # Number of instructions fetched each cycle (Total)
system.switch_cpus0.fetch.rateDist::total      2663648                       # Number of instructions fetched each cycle (Total)
system.switch_cpus0.fetch.branchRate         0.077177                       # Number of branch fetches per cycle
system.switch_cpus0.fetch.rate               0.437610                       # Number of inst fetches per cycle
system.switch_cpus0.decode.IdleCycles         2225954                       # Number of cycles decode is idle
system.switch_cpus0.decode.BlockedCycles       116331                       # Number of cycles decode is blocked
system.switch_cpus0.decode.RunCycles           277851                       # Number of cycles decode is running
system.switch_cpus0.decode.UnblockCycles          332                       # Number of cycles decode is unblocking
system.switch_cpus0.decode.SquashCycles         43174                       # Number of cycles decode is squashing
system.switch_cpus0.decode.BranchResolved        22007                       # Number of times decode resolved a branch
system.switch_cpus0.decode.BranchMispred          421                       # Number of times decode detected a branch misprediction
system.switch_cpus0.decode.DecodedInsts       1414066                       # Number of instructions handled by decode
system.switch_cpus0.decode.SquashedInsts         1772                       # Number of squashed instructions handled by decode
system.switch_cpus0.rename.SquashCycles         43174                       # Number of cycles rename is squashing
system.switch_cpus0.rename.IdleCycles         2234901                       # Number of cycles rename is idle
system.switch_cpus0.rename.BlockCycles          76924                       # Number of cycles rename is blocking
system.switch_cpus0.rename.serializeStallCycles        14723                       # count of cycles rename stalled for serializing inst
system.switch_cpus0.rename.RunCycles           270971                       # Number of cycles rename is running
system.switch_cpus0.rename.UnblockCycles        22949                       # Number of cycles rename is unblocking
system.switch_cpus0.rename.RenamedInsts       1411198                       # Number of instructions processed by rename
system.switch_cpus0.rename.ROBFullEvents            9                       # Number of times rename has blocked due to ROB full
system.switch_cpus0.rename.IQFullEvents          1141                       # Number of times rename has blocked due to IQ full
system.switch_cpus0.rename.LSQFullEvents        20842                       # Number of times rename has blocked due to LSQ full
system.switch_cpus0.rename.RenamedOperands      1856570                       # Number of destination operands rename has renamed
system.switch_cpus0.rename.RenameLookups      6404224                       # Number of register rename lookups that rename has made
system.switch_cpus0.rename.int_rename_lookups      6404224                       # Number of integer rename lookups
system.switch_cpus0.rename.CommittedMaps      1478065                       # Number of HB maps that are committed
system.switch_cpus0.rename.UndoneMaps          378478                       # Number of HB maps that are undone due to squashing
system.switch_cpus0.rename.serializingInsts          203                       # count of serializing insts renamed
system.switch_cpus0.rename.tempSerializingInsts          109                       # count of temporary serializing insts renamed
system.switch_cpus0.rename.skidInsts            41073                       # count of insts added to the skid buffer
system.switch_cpus0.memDep0.insertedLoads       248712                       # Number of loads inserted to the mem dependence unit.
system.switch_cpus0.memDep0.insertedStores        42626                       # Number of stores inserted to the mem dependence unit.
system.switch_cpus0.memDep0.conflictingLoads          228                       # Number of conflicting loads.
system.switch_cpus0.memDep0.conflictingStores         9374                       # Number of conflicting stores.
system.switch_cpus0.iq.iqInstsAdded           1401894                       # Number of instructions added to the IQ (excludes non-spec)
system.switch_cpus0.iq.iqNonSpecInstsAdded          206                       # Number of non-speculative instructions added to the IQ
system.switch_cpus0.iq.iqInstsIssued          1302293                       # Number of instructions issued
system.switch_cpus0.iq.iqSquashedInstsIssued         1309                       # Number of squashed instructions issued
system.switch_cpus0.iq.iqSquashedInstsExamined       269318                       # Number of squashed instructions iterated over during squash; mainly for profiling
system.switch_cpus0.iq.iqSquashedOperandsExamined       571948                       # Number of squashed operands that are examined and possibly removed from graph
system.switch_cpus0.iq.iqSquashedNonSpecRemoved            8                       # Number of squashed non-spec instructions that were removed
system.switch_cpus0.iq.issued_per_cycle::samples      2663648                       # Number of insts issued each cycle
system.switch_cpus0.iq.issued_per_cycle::mean     0.488913                       # Number of insts issued each cycle
system.switch_cpus0.iq.issued_per_cycle::stdev     1.106310                       # Number of insts issued each cycle
system.switch_cpus0.iq.issued_per_cycle::underflows            0      0.00%      0.00% # Number of insts issued each cycle
system.switch_cpus0.iq.issued_per_cycle::0      2091205     78.51%     78.51% # Number of insts issued each cycle
system.switch_cpus0.iq.issued_per_cycle::1       190630      7.16%     85.67% # Number of insts issued each cycle
system.switch_cpus0.iq.issued_per_cycle::2       178991      6.72%     92.39% # Number of insts issued each cycle
system.switch_cpus0.iq.issued_per_cycle::3       110734      4.16%     96.54% # Number of insts issued each cycle
system.switch_cpus0.iq.issued_per_cycle::4        58474      2.20%     98.74% # Number of insts issued each cycle
system.switch_cpus0.iq.issued_per_cycle::5        15247      0.57%     99.31% # Number of insts issued each cycle
system.switch_cpus0.iq.issued_per_cycle::6        17588      0.66%     99.97% # Number of insts issued each cycle
system.switch_cpus0.iq.issued_per_cycle::7          412      0.02%     99.99% # Number of insts issued each cycle
system.switch_cpus0.iq.issued_per_cycle::8          367      0.01%    100.00% # Number of insts issued each cycle
system.switch_cpus0.iq.issued_per_cycle::overflows            0      0.00%    100.00% # Number of insts issued each cycle
system.switch_cpus0.iq.issued_per_cycle::min_value            0                       # Number of insts issued each cycle
system.switch_cpus0.iq.issued_per_cycle::max_value            8                       # Number of insts issued each cycle
system.switch_cpus0.iq.issued_per_cycle::total      2663648                       # Number of insts issued each cycle
system.switch_cpus0.iq.fu_full::No_OpClass            0      0.00%      0.00% # attempts to use FU when none available
system.switch_cpus0.iq.fu_full::IntAlu           2365     57.88%     57.88% # attempts to use FU when none available
system.switch_cpus0.iq.fu_full::IntMult             0      0.00%     57.88% # attempts to use FU when none available
system.switch_cpus0.iq.fu_full::IntDiv              0      0.00%     57.88% # attempts to use FU when none available
system.switch_cpus0.iq.fu_full::FloatAdd            0      0.00%     57.88% # attempts to use FU when none available
system.switch_cpus0.iq.fu_full::FloatCmp            0      0.00%     57.88% # attempts to use FU when none available
system.switch_cpus0.iq.fu_full::FloatCvt            0      0.00%     57.88% # attempts to use FU when none available
system.switch_cpus0.iq.fu_full::FloatMult            0      0.00%     57.88% # attempts to use FU when none available
system.switch_cpus0.iq.fu_full::FloatDiv            0      0.00%     57.88% # attempts to use FU when none available
system.switch_cpus0.iq.fu_full::FloatSqrt            0      0.00%     57.88% # attempts to use FU when none available
system.switch_cpus0.iq.fu_full::SimdAdd             0      0.00%     57.88% # attempts to use FU when none available
system.switch_cpus0.iq.fu_full::SimdAddAcc            0      0.00%     57.88% # attempts to use FU when none available
system.switch_cpus0.iq.fu_full::SimdAlu             0      0.00%     57.88% # attempts to use FU when none available
system.switch_cpus0.iq.fu_full::SimdCmp             0      0.00%     57.88% # attempts to use FU when none available
system.switch_cpus0.iq.fu_full::SimdCvt             0      0.00%     57.88% # attempts to use FU when none available
system.switch_cpus0.iq.fu_full::SimdMisc            0      0.00%     57.88% # attempts to use FU when none available
system.switch_cpus0.iq.fu_full::SimdMult            0      0.00%     57.88% # attempts to use FU when none available
system.switch_cpus0.iq.fu_full::SimdMultAcc            0      0.00%     57.88% # attempts to use FU when none available
system.switch_cpus0.iq.fu_full::SimdShift            0      0.00%     57.88% # attempts to use FU when none available
system.switch_cpus0.iq.fu_full::SimdShiftAcc            0      0.00%     57.88% # attempts to use FU when none available
system.switch_cpus0.iq.fu_full::SimdSqrt            0      0.00%     57.88% # attempts to use FU when none available
system.switch_cpus0.iq.fu_full::SimdFloatAdd            0      0.00%     57.88% # attempts to use FU when none available
system.switch_cpus0.iq.fu_full::SimdFloatAlu            0      0.00%     57.88% # attempts to use FU when none available
system.switch_cpus0.iq.fu_full::SimdFloatCmp            0      0.00%     57.88% # attempts to use FU when none available
system.switch_cpus0.iq.fu_full::SimdFloatCvt            0      0.00%     57.88% # attempts to use FU when none available
system.switch_cpus0.iq.fu_full::SimdFloatDiv            0      0.00%     57.88% # attempts to use FU when none available
system.switch_cpus0.iq.fu_full::SimdFloatMisc            0      0.00%     57.88% # attempts to use FU when none available
system.switch_cpus0.iq.fu_full::SimdFloatMult            0      0.00%     57.88% # attempts to use FU when none available
system.switch_cpus0.iq.fu_full::SimdFloatMultAcc            0      0.00%     57.88% # attempts to use FU when none available
system.switch_cpus0.iq.fu_full::SimdFloatSqrt            0      0.00%     57.88% # attempts to use FU when none available
system.switch_cpus0.iq.fu_full::MemRead           944     23.10%     80.98% # attempts to use FU when none available
system.switch_cpus0.iq.fu_full::MemWrite          777     19.02%    100.00% # attempts to use FU when none available
system.switch_cpus0.iq.fu_full::IprAccess            0      0.00%    100.00% # attempts to use FU when none available
system.switch_cpus0.iq.fu_full::InstPrefetch            0      0.00%    100.00% # attempts to use FU when none available
system.switch_cpus0.iq.FU_type_0::No_OpClass            0      0.00%      0.00% # Type of FU issued
system.switch_cpus0.iq.FU_type_0::IntAlu      1024356     78.66%     78.66% # Type of FU issued
system.switch_cpus0.iq.FU_type_0::IntMult        10473      0.80%     79.46% # Type of FU issued
system.switch_cpus0.iq.FU_type_0::IntDiv            0      0.00%     79.46% # Type of FU issued
system.switch_cpus0.iq.FU_type_0::FloatAdd            0      0.00%     79.46% # Type of FU issued
system.switch_cpus0.iq.FU_type_0::FloatCmp            0      0.00%     79.46% # Type of FU issued
system.switch_cpus0.iq.FU_type_0::FloatCvt            0      0.00%     79.46% # Type of FU issued
system.switch_cpus0.iq.FU_type_0::FloatMult            0      0.00%     79.46% # Type of FU issued
system.switch_cpus0.iq.FU_type_0::FloatDiv            0      0.00%     79.46% # Type of FU issued
system.switch_cpus0.iq.FU_type_0::FloatSqrt            0      0.00%     79.46% # Type of FU issued
system.switch_cpus0.iq.FU_type_0::SimdAdd            0      0.00%     79.46% # Type of FU issued
system.switch_cpus0.iq.FU_type_0::SimdAddAcc            0      0.00%     79.46% # Type of FU issued
system.switch_cpus0.iq.FU_type_0::SimdAlu            0      0.00%     79.46% # Type of FU issued
system.switch_cpus0.iq.FU_type_0::SimdCmp            0      0.00%     79.46% # Type of FU issued
system.switch_cpus0.iq.FU_type_0::SimdCvt            0      0.00%     79.46% # Type of FU issued
system.switch_cpus0.iq.FU_type_0::SimdMisc            0      0.00%     79.46% # Type of FU issued
system.switch_cpus0.iq.FU_type_0::SimdMult            0      0.00%     79.46% # Type of FU issued
system.switch_cpus0.iq.FU_type_0::SimdMultAcc            0      0.00%     79.46% # Type of FU issued
system.switch_cpus0.iq.FU_type_0::SimdShift            0      0.00%     79.46% # Type of FU issued
system.switch_cpus0.iq.FU_type_0::SimdShiftAcc            0      0.00%     79.46% # Type of FU issued
system.switch_cpus0.iq.FU_type_0::SimdSqrt            0      0.00%     79.46% # Type of FU issued
system.switch_cpus0.iq.FU_type_0::SimdFloatAdd            0      0.00%     79.46% # Type of FU issued
system.switch_cpus0.iq.FU_type_0::SimdFloatAlu            0      0.00%     79.46% # Type of FU issued
system.switch_cpus0.iq.FU_type_0::SimdFloatCmp            0      0.00%     79.46% # Type of FU issued
system.switch_cpus0.iq.FU_type_0::SimdFloatCvt            0      0.00%     79.46% # Type of FU issued
system.switch_cpus0.iq.FU_type_0::SimdFloatDiv            0      0.00%     79.46% # Type of FU issued
system.switch_cpus0.iq.FU_type_0::SimdFloatMisc           95      0.01%     79.47% # Type of FU issued
system.switch_cpus0.iq.FU_type_0::SimdFloatMult            0      0.00%     79.47% # Type of FU issued
system.switch_cpus0.iq.FU_type_0::SimdFloatMultAcc            0      0.00%     79.47% # Type of FU issued
system.switch_cpus0.iq.FU_type_0::SimdFloatSqrt            0      0.00%     79.47% # Type of FU issued
system.switch_cpus0.iq.FU_type_0::MemRead       225389     17.31%     96.78% # Type of FU issued
system.switch_cpus0.iq.FU_type_0::MemWrite        41980      3.22%    100.00% # Type of FU issued
system.switch_cpus0.iq.FU_type_0::IprAccess            0      0.00%    100.00% # Type of FU issued
system.switch_cpus0.iq.FU_type_0::InstPrefetch            0      0.00%    100.00% # Type of FU issued
system.switch_cpus0.iq.FU_type_0::total       1302293                       # Type of FU issued
system.switch_cpus0.iq.rate                  0.452897                       # Inst issue rate
system.switch_cpus0.iq.fu_busy_cnt               4086                       # FU busy when requested
system.switch_cpus0.iq.fu_busy_rate          0.003138                       # FU busy rate (busy events/executed inst)
system.switch_cpus0.iq.int_inst_queue_reads      5273628                       # Number of integer instruction queue reads
system.switch_cpus0.iq.int_inst_queue_writes      1671438                       # Number of integer instruction queue writes
system.switch_cpus0.iq.int_inst_queue_wakeup_accesses      1266880                       # Number of integer instruction queue wakeup accesses
system.switch_cpus0.iq.fp_inst_queue_reads            0                       # Number of floating instruction queue reads
system.switch_cpus0.iq.fp_inst_queue_writes            0                       # Number of floating instruction queue writes
system.switch_cpus0.iq.fp_inst_queue_wakeup_accesses            0                       # Number of floating instruction queue wakeup accesses
system.switch_cpus0.iq.int_alu_accesses       1306379                       # Number of integer alu accesses
system.switch_cpus0.iq.fp_alu_accesses              0                       # Number of floating point alu accesses
system.switch_cpus0.iew.lsq.thread0.forwLoads         1021                       # Number of loads that had data forwarded from stores
system.switch_cpus0.iew.lsq.thread0.invAddrLoads            0                       # Number of loads ignored due to an invalid address
system.switch_cpus0.iew.lsq.thread0.squashedLoads        53414                       # Number of loads squashed
system.switch_cpus0.iew.lsq.thread0.ignoredResponses            7                       # Number of memory responses ignored because the instruction is squashed
system.switch_cpus0.iew.lsq.thread0.memOrderViolation           22                       # Number of memory ordering violations
system.switch_cpus0.iew.lsq.thread0.squashedStores         1739                       # Number of stores squashed
system.switch_cpus0.iew.lsq.thread0.invAddrSwpfs            0                       # Number of software prefetches ignored due to an invalid address
system.switch_cpus0.iew.lsq.thread0.blockedLoads            0                       # Number of blocked loads due to partial load-store forwarding
system.switch_cpus0.iew.lsq.thread0.rescheduledLoads            0                       # Number of loads that were rescheduled
system.switch_cpus0.iew.lsq.thread0.cacheBlocked            0                       # Number of times an access to memory failed due to the cache being blocked
system.switch_cpus0.iew.iewIdleCycles               0                       # Number of cycles IEW is idle
system.switch_cpus0.iew.iewSquashCycles         43174                       # Number of cycles IEW is squashing
system.switch_cpus0.iew.iewBlockCycles          37438                       # Number of cycles IEW is blocking
system.switch_cpus0.iew.iewUnblockCycles         2946                       # Number of cycles IEW is unblocking
system.switch_cpus0.iew.iewDispatchedInsts      1402105                       # Number of instructions dispatched to IQ
system.switch_cpus0.iew.iewDispSquashedInsts           67                       # Number of squashed instructions skipped by dispatch
system.switch_cpus0.iew.iewDispLoadInsts       248712                       # Number of dispatched load instructions
system.switch_cpus0.iew.iewDispStoreInsts        42626                       # Number of dispatched store instructions
system.switch_cpus0.iew.iewDispNonSpecInsts          107                       # Number of dispatched non-speculative instructions
system.switch_cpus0.iew.iewIQFullEvents           486                       # Number of times the IQ has become full, causing a stall
system.switch_cpus0.iew.iewLSQFullEvents           31                       # Number of times the LSQ has become full, causing a stall
system.switch_cpus0.iew.memOrderViolationEvents           22                       # Number of memory order violations
system.switch_cpus0.iew.predictedTakenIncorrect        11570                       # Number of branches that were predicted taken incorrectly
system.switch_cpus0.iew.predictedNotTakenIncorrect         8881                       # Number of branches that were predicted not taken incorrectly
system.switch_cpus0.iew.branchMispredicts        20451                       # Number of branch mispredicts detected at execute
system.switch_cpus0.iew.iewExecutedInsts      1283624                       # Number of executed instructions
system.switch_cpus0.iew.iewExecLoadInsts       221626                       # Number of load instructions executed
system.switch_cpus0.iew.iewExecSquashedInsts        18668                       # Number of squashed instructions skipped in execute
system.switch_cpus0.iew.exec_swp                    0                       # number of swp insts executed
system.switch_cpus0.iew.exec_nop                    5                       # number of nop insts executed
system.switch_cpus0.iew.exec_refs              263592                       # number of memory reference insts executed
system.switch_cpus0.iew.exec_branches          194509                       # Number of branches executed
system.switch_cpus0.iew.exec_stores             41966                       # Number of stores executed
system.switch_cpus0.iew.exec_rate            0.446404                       # Inst execution rate
system.switch_cpus0.iew.wb_sent               1267507                       # cumulative count of insts sent to commit
system.switch_cpus0.iew.wb_count              1266880                       # cumulative count of insts written-back
system.switch_cpus0.iew.wb_producers           765292                       # num instructions producing a value
system.switch_cpus0.iew.wb_consumers          1691130                       # num instructions consuming a value
system.switch_cpus0.iew.wb_penalized                0                       # number of instrctions required to write to 'other' IQ
system.switch_cpus0.iew.wb_rate              0.440581                       # insts written-back per cycle
system.switch_cpus0.iew.wb_fanout            0.452533                       # average fanout of values written-back
system.switch_cpus0.iew.wb_penalized_rate            0                       # fraction of instructions written-back that wrote to 'other' IQ
system.switch_cpus0.commit.commitCommittedInsts      1000001                       # The number of committed instructions
system.switch_cpus0.commit.commitCommittedOps      1129674                       # The number of committed instructions
system.switch_cpus0.commit.commitSquashedInsts       272494                       # The number of squashed insts skipped by commit
system.switch_cpus0.commit.commitNonSpecStalls          198                       # The number of times commit has been forced to stall to communicate backwards
system.switch_cpus0.commit.branchMispredicts        18996                       # The number of times a branch was mispredicted
system.switch_cpus0.commit.committed_per_cycle::samples      2620474                       # Number of insts commited each cycle
system.switch_cpus0.commit.committed_per_cycle::mean     0.431095                       # Number of insts commited each cycle
system.switch_cpus0.commit.committed_per_cycle::stdev     1.298506                       # Number of insts commited each cycle
system.switch_cpus0.commit.committed_per_cycle::underflows            0      0.00%      0.00% # Number of insts commited each cycle
system.switch_cpus0.commit.committed_per_cycle::0      2198025     83.88%     83.88% # Number of insts commited each cycle
system.switch_cpus0.commit.committed_per_cycle::1       166894      6.37%     90.25% # Number of insts commited each cycle
system.switch_cpus0.commit.committed_per_cycle::2       106677      4.07%     94.32% # Number of insts commited each cycle
system.switch_cpus0.commit.committed_per_cycle::3        33079      1.26%     95.58% # Number of insts commited each cycle
system.switch_cpus0.commit.committed_per_cycle::4        55290      2.11%     97.69% # Number of insts commited each cycle
system.switch_cpus0.commit.committed_per_cycle::5        11336      0.43%     98.12% # Number of insts commited each cycle
system.switch_cpus0.commit.committed_per_cycle::6         7263      0.28%     98.40% # Number of insts commited each cycle
system.switch_cpus0.commit.committed_per_cycle::7         6509      0.25%     98.65% # Number of insts commited each cycle
system.switch_cpus0.commit.committed_per_cycle::8        35401      1.35%    100.00% # Number of insts commited each cycle
system.switch_cpus0.commit.committed_per_cycle::overflows            0      0.00%    100.00% # Number of insts commited each cycle
system.switch_cpus0.commit.committed_per_cycle::min_value            0                       # Number of insts commited each cycle
system.switch_cpus0.commit.committed_per_cycle::max_value            8                       # Number of insts commited each cycle
system.switch_cpus0.commit.committed_per_cycle::total      2620474                       # Number of insts commited each cycle
system.switch_cpus0.commit.committedInsts      1000001                       # Number of instructions committed
system.switch_cpus0.commit.committedOps       1129674                       # Number of ops (including micro ops) committed
system.switch_cpus0.commit.swp_count                0                       # Number of s/w prefetches committed
system.switch_cpus0.commit.refs                236185                       # Number of memory references committed
system.switch_cpus0.commit.loads               195298                       # Number of loads committed
system.switch_cpus0.commit.membars                 98                       # Number of memory barriers committed
system.switch_cpus0.commit.branches            173315                       # Number of branches committed
system.switch_cpus0.commit.fp_insts                 0                       # Number of committed floating point instructions.
system.switch_cpus0.commit.int_insts           988112                       # Number of committed integer instructions.
system.switch_cpus0.commit.function_calls        14525                       # Number of function calls committed.
system.switch_cpus0.commit.bw_lim_events        35401                       # number cycles where commit BW limit reached
system.switch_cpus0.commit.bw_limited               0                       # number of insts not committed due to BW limits
system.switch_cpus0.rob.rob_reads             3987228                       # The number of ROB reads
system.switch_cpus0.rob.rob_writes            2847560                       # The number of ROB writes
system.switch_cpus0.timesIdled                  50942                       # Number of times that the entire CPU went into an idle state and unscheduled itself
system.switch_cpus0.idleCycles                 211825                       # Total number of cycles that the CPU has spent unscheduled due to idling
system.switch_cpus0.committedInsts            1000001                       # Number of Instructions Simulated
system.switch_cpus0.committedOps              1129674                       # Number of Ops (including micro ops) Simulated
system.switch_cpus0.committedInsts_total      1000001                       # Number of Instructions Simulated
system.switch_cpus0.cpi                      2.875470                       # CPI: Cycles Per Instruction
system.switch_cpus0.cpi_total                2.875470                       # CPI: Total CPI of All Threads
system.switch_cpus0.ipc                      0.347769                       # IPC: Instructions Per Cycle
system.switch_cpus0.ipc_total                0.347769                       # IPC: Total IPC of All Threads
system.switch_cpus0.int_regfile_reads         5955190                       # number of integer regfile reads
system.switch_cpus0.int_regfile_writes        1657114                       # number of integer regfile writes
system.switch_cpus0.misc_regfile_reads        1489583                       # number of misc regfile reads
system.switch_cpus0.misc_regfile_writes           198                       # number of misc regfile writes
system.switch_cpus1.dtb.inst_hits                   0                       # ITB inst hits
system.switch_cpus1.dtb.inst_misses                 0                       # ITB inst misses
system.switch_cpus1.dtb.read_hits                   0                       # DTB read hits
system.switch_cpus1.dtb.read_misses                 0                       # DTB read misses
system.switch_cpus1.dtb.write_hits                  0                       # DTB write hits
system.switch_cpus1.dtb.write_misses                0                       # DTB write misses
system.switch_cpus1.dtb.flush_tlb                   0                       # Number of times complete TLB was flushed
system.switch_cpus1.dtb.flush_tlb_mva               0                       # Number of times TLB was flushed by MVA
system.switch_cpus1.dtb.flush_tlb_mva_asid            0                       # Number of times TLB was flushed by MVA & ASID
system.switch_cpus1.dtb.flush_tlb_asid              0                       # Number of times TLB was flushed by ASID
system.switch_cpus1.dtb.flush_entries               0                       # Number of entries that have been flushed from TLB
system.switch_cpus1.dtb.align_faults                0                       # Number of TLB faults due to alignment restrictions
system.switch_cpus1.dtb.prefetch_faults             0                       # Number of TLB faults due to prefetch
system.switch_cpus1.dtb.domain_faults               0                       # Number of TLB faults due to domain restrictions
system.switch_cpus1.dtb.perms_faults                0                       # Number of TLB faults due to permissions restrictions
system.switch_cpus1.dtb.read_accesses               0                       # DTB read accesses
system.switch_cpus1.dtb.write_accesses              0                       # DTB write accesses
system.switch_cpus1.dtb.inst_accesses               0                       # ITB inst accesses
system.switch_cpus1.dtb.hits                        0                       # DTB hits
system.switch_cpus1.dtb.misses                      0                       # DTB misses
system.switch_cpus1.dtb.accesses                    0                       # DTB accesses
system.switch_cpus1.itb.inst_hits                   0                       # ITB inst hits
system.switch_cpus1.itb.inst_misses                 0                       # ITB inst misses
system.switch_cpus1.itb.read_hits                   0                       # DTB read hits
system.switch_cpus1.itb.read_misses                 0                       # DTB read misses
system.switch_cpus1.itb.write_hits                  0                       # DTB write hits
system.switch_cpus1.itb.write_misses                0                       # DTB write misses
system.switch_cpus1.itb.flush_tlb                   0                       # Number of times complete TLB was flushed
system.switch_cpus1.itb.flush_tlb_mva               0                       # Number of times TLB was flushed by MVA
system.switch_cpus1.itb.flush_tlb_mva_asid            0                       # Number of times TLB was flushed by MVA & ASID
system.switch_cpus1.itb.flush_tlb_asid              0                       # Number of times TLB was flushed by ASID
system.switch_cpus1.itb.flush_entries               0                       # Number of entries that have been flushed from TLB
system.switch_cpus1.itb.align_faults                0                       # Number of TLB faults due to alignment restrictions
system.switch_cpus1.itb.prefetch_faults             0                       # Number of TLB faults due to prefetch
system.switch_cpus1.itb.domain_faults               0                       # Number of TLB faults due to domain restrictions
system.switch_cpus1.itb.perms_faults                0                       # Number of TLB faults due to permissions restrictions
system.switch_cpus1.itb.read_accesses               0                       # DTB read accesses
system.switch_cpus1.itb.write_accesses              0                       # DTB write accesses
system.switch_cpus1.itb.inst_accesses               0                       # ITB inst accesses
system.switch_cpus1.itb.hits                        0                       # DTB hits
system.switch_cpus1.itb.misses                      0                       # DTB misses
system.switch_cpus1.itb.accesses                    0                       # DTB accesses
system.cpu1.workload.num_syscalls                   1                       # Number of system calls
system.switch_cpus1.numCycles                 2875473                       # number of cpu cycles simulated
system.switch_cpus1.numWorkItemsStarted             0                       # number of work items this cpu started
system.switch_cpus1.numWorkItemsCompleted            0                       # number of work items this cpu completed
system.switch_cpus1.BPredUnit.lookups          260261                       # Number of BP lookups
system.switch_cpus1.BPredUnit.condPredicted       216768                       # Number of conditional branches predicted
system.switch_cpus1.BPredUnit.condIncorrect        25425                       # Number of conditional branches incorrect
system.switch_cpus1.BPredUnit.BTBLookups       102532                       # Number of BTB lookups
system.switch_cpus1.BPredUnit.BTBHits           93086                       # Number of BTB hits
system.switch_cpus1.BPredUnit.BTBCorrect            0                       # Number of correct BTB predictions (this stat may not work properly.
system.switch_cpus1.BPredUnit.usedRAS           27667                       # Number of times the RAS was used to get a target.
system.switch_cpus1.BPredUnit.RASInCorrect         1192                       # Number of incorrect RAS predictions.
system.switch_cpus1.fetch.icacheStallCycles      2262922                       # Number of cycles fetch is stalled on an Icache miss
system.switch_cpus1.fetch.Insts               1429303                       # Number of instructions fetch has processed
system.switch_cpus1.fetch.Branches             260261                       # Number of branches that fetch encountered
system.switch_cpus1.fetch.predictedBranches       120753                       # Number of branches that fetch has predicted taken
system.switch_cpus1.fetch.Cycles               296953                       # Number of cycles fetch has run and was not squashing or blocked
system.switch_cpus1.fetch.SquashCycles          71561                       # Number of cycles fetch has spent squashing
system.switch_cpus1.fetch.BlockedCycles         68631                       # Number of cycles fetch has spent blocked
system.switch_cpus1.fetch.CacheLines           142066                       # Number of cache lines fetched
system.switch_cpus1.fetch.IcacheSquashes        24200                       # Number of outstanding Icache misses that were squashed
system.switch_cpus1.fetch.rateDist::samples      2674407                       # Number of instructions fetched each cycle (Total)
system.switch_cpus1.fetch.rateDist::mean     0.657401                       # Number of instructions fetched each cycle (Total)
system.switch_cpus1.fetch.rateDist::stdev     2.036213                       # Number of instructions fetched each cycle (Total)
system.switch_cpus1.fetch.rateDist::underflows            0      0.00%      0.00% # Number of instructions fetched each cycle (Total)
system.switch_cpus1.fetch.rateDist::0         2377454     88.90%     88.90% # Number of instructions fetched each cycle (Total)
system.switch_cpus1.fetch.rateDist::1           17934      0.67%     89.57% # Number of instructions fetched each cycle (Total)
system.switch_cpus1.fetch.rateDist::2           22687      0.85%     90.42% # Number of instructions fetched each cycle (Total)
system.switch_cpus1.fetch.rateDist::3           36296      1.36%     91.77% # Number of instructions fetched each cycle (Total)
system.switch_cpus1.fetch.rateDist::4           14895      0.56%     92.33% # Number of instructions fetched each cycle (Total)
system.switch_cpus1.fetch.rateDist::5           19581      0.73%     93.06% # Number of instructions fetched each cycle (Total)
system.switch_cpus1.fetch.rateDist::6           22686      0.85%     93.91% # Number of instructions fetched each cycle (Total)
system.switch_cpus1.fetch.rateDist::7           10632      0.40%     94.31% # Number of instructions fetched each cycle (Total)
system.switch_cpus1.fetch.rateDist::8          152242      5.69%    100.00% # Number of instructions fetched each cycle (Total)
system.switch_cpus1.fetch.rateDist::overflows            0      0.00%    100.00% # Number of instructions fetched each cycle (Total)
system.switch_cpus1.fetch.rateDist::min_value            0                       # Number of instructions fetched each cycle (Total)
system.switch_cpus1.fetch.rateDist::max_value            8                       # Number of instructions fetched each cycle (Total)
system.switch_cpus1.fetch.rateDist::total      2674407                       # Number of instructions fetched each cycle (Total)
system.switch_cpus1.fetch.branchRate         0.090511                       # Number of branch fetches per cycle
system.switch_cpus1.fetch.rate               0.497067                       # Number of inst fetches per cycle
system.switch_cpus1.decode.IdleCycles         2249591                       # Number of cycles decode is idle
system.switch_cpus1.decode.BlockedCycles        83533                       # Number of cycles decode is blocked
system.switch_cpus1.decode.RunCycles           295415                       # Number of cycles decode is running
system.switch_cpus1.decode.UnblockCycles          175                       # Number of cycles decode is unblocking
system.switch_cpus1.decode.SquashCycles         45687                       # Number of cycles decode is squashing
system.switch_cpus1.decode.BranchResolved        39358                       # Number of times decode resolved a branch
system.switch_cpus1.decode.BranchMispred          215                       # Number of times decode detected a branch misprediction
system.switch_cpus1.decode.DecodedInsts       1746187                       # Number of instructions handled by decode
system.switch_cpus1.decode.SquashedInsts         1269                       # Number of squashed instructions handled by decode
system.switch_cpus1.rename.SquashCycles         45687                       # Number of cycles rename is squashing
system.switch_cpus1.rename.IdleCycles         2252405                       # Number of cycles rename is idle
system.switch_cpus1.rename.BlockCycles           7335                       # Number of cycles rename is blocking
system.switch_cpus1.rename.serializeStallCycles        69498                       # count of cycles rename stalled for serializing inst
system.switch_cpus1.rename.RunCycles           292744                       # Number of cycles rename is running
system.switch_cpus1.rename.UnblockCycles         6733                       # Number of cycles rename is unblocking
system.switch_cpus1.rename.RenamedInsts       1734384                       # Number of instructions processed by rename
system.switch_cpus1.rename.ROBFullEvents            2                       # Number of times rename has blocked due to ROB full
system.switch_cpus1.rename.IQFullEvents           934                       # Number of times rename has blocked due to IQ full
system.switch_cpus1.rename.LSQFullEvents         4602                       # Number of times rename has blocked due to LSQ full
system.switch_cpus1.rename.RenamedOperands      2423259                       # Number of destination operands rename has renamed
system.switch_cpus1.rename.RenameLookups      8061909                       # Number of register rename lookups that rename has made
system.switch_cpus1.rename.int_rename_lookups      8061909                       # Number of integer rename lookups
system.switch_cpus1.rename.CommittedMaps      1994665                       # Number of HB maps that are committed
system.switch_cpus1.rename.UndoneMaps          428593                       # Number of HB maps that are undone due to squashing
system.switch_cpus1.rename.serializingInsts          415                       # count of serializing insts renamed
system.switch_cpus1.rename.tempSerializingInsts          216                       # count of temporary serializing insts renamed
system.switch_cpus1.rename.skidInsts            24604                       # count of insts added to the skid buffer
system.switch_cpus1.memDep0.insertedLoads       164030                       # Number of loads inserted to the mem dependence unit.
system.switch_cpus1.memDep0.insertedStores        84017                       # Number of stores inserted to the mem dependence unit.
system.switch_cpus1.memDep0.conflictingLoads          968                       # Number of conflicting loads.
system.switch_cpus1.memDep0.conflictingStores        19007                       # Number of conflicting stores.
system.switch_cpus1.iq.iqInstsAdded           1691515                       # Number of instructions added to the IQ (excludes non-spec)
system.switch_cpus1.iq.iqNonSpecInstsAdded          417                       # Number of non-speculative instructions added to the IQ
system.switch_cpus1.iq.iqInstsIssued          1611051                       # Number of instructions issued
system.switch_cpus1.iq.iqSquashedInstsIssued         1990                       # Number of squashed instructions issued
system.switch_cpus1.iq.iqSquashedInstsExamined       226339                       # Number of squashed instructions iterated over during squash; mainly for profiling
system.switch_cpus1.iq.iqSquashedOperandsExamined       478147                       # Number of squashed operands that are examined and possibly removed from graph
system.switch_cpus1.iq.iqSquashedNonSpecRemoved           16                       # Number of squashed non-spec instructions that were removed
system.switch_cpus1.iq.issued_per_cycle::samples      2674407                       # Number of insts issued each cycle
system.switch_cpus1.iq.issued_per_cycle::mean     0.602396                       # Number of insts issued each cycle
system.switch_cpus1.iq.issued_per_cycle::stdev     1.324197                       # Number of insts issued each cycle
system.switch_cpus1.iq.issued_per_cycle::underflows            0      0.00%      0.00% # Number of insts issued each cycle
system.switch_cpus1.iq.issued_per_cycle::0      1992522     74.50%     74.50% # Number of insts issued each cycle
system.switch_cpus1.iq.issued_per_cycle::1       310412     11.61%     86.11% # Number of insts issued each cycle
system.switch_cpus1.iq.issued_per_cycle::2       127011      4.75%     90.86% # Number of insts issued each cycle
system.switch_cpus1.iq.issued_per_cycle::3        72068      2.69%     93.55% # Number of insts issued each cycle
system.switch_cpus1.iq.issued_per_cycle::4        95815      3.58%     97.14% # Number of insts issued each cycle
system.switch_cpus1.iq.issued_per_cycle::5        30404      1.14%     98.27% # Number of insts issued each cycle
system.switch_cpus1.iq.issued_per_cycle::6        29327      1.10%     99.37% # Number of insts issued each cycle
system.switch_cpus1.iq.issued_per_cycle::7        15613      0.58%     99.95% # Number of insts issued each cycle
system.switch_cpus1.iq.issued_per_cycle::8         1235      0.05%    100.00% # Number of insts issued each cycle
system.switch_cpus1.iq.issued_per_cycle::overflows            0      0.00%    100.00% # Number of insts issued each cycle
system.switch_cpus1.iq.issued_per_cycle::min_value            0                       # Number of insts issued each cycle
system.switch_cpus1.iq.issued_per_cycle::max_value            8                       # Number of insts issued each cycle
system.switch_cpus1.iq.issued_per_cycle::total      2674407                       # Number of insts issued each cycle
system.switch_cpus1.iq.fu_full::No_OpClass            0      0.00%      0.00% # attempts to use FU when none available
system.switch_cpus1.iq.fu_full::IntAlu          11206     78.78%     78.78% # attempts to use FU when none available
system.switch_cpus1.iq.fu_full::IntMult             0      0.00%     78.78% # attempts to use FU when none available
system.switch_cpus1.iq.fu_full::IntDiv              0      0.00%     78.78% # attempts to use FU when none available
system.switch_cpus1.iq.fu_full::FloatAdd            0      0.00%     78.78% # attempts to use FU when none available
system.switch_cpus1.iq.fu_full::FloatCmp            0      0.00%     78.78% # attempts to use FU when none available
system.switch_cpus1.iq.fu_full::FloatCvt            0      0.00%     78.78% # attempts to use FU when none available
system.switch_cpus1.iq.fu_full::FloatMult            0      0.00%     78.78% # attempts to use FU when none available
system.switch_cpus1.iq.fu_full::FloatDiv            0      0.00%     78.78% # attempts to use FU when none available
system.switch_cpus1.iq.fu_full::FloatSqrt            0      0.00%     78.78% # attempts to use FU when none available
system.switch_cpus1.iq.fu_full::SimdAdd             0      0.00%     78.78% # attempts to use FU when none available
system.switch_cpus1.iq.fu_full::SimdAddAcc            0      0.00%     78.78% # attempts to use FU when none available
system.switch_cpus1.iq.fu_full::SimdAlu             0      0.00%     78.78% # attempts to use FU when none available
system.switch_cpus1.iq.fu_full::SimdCmp             0      0.00%     78.78% # attempts to use FU when none available
system.switch_cpus1.iq.fu_full::SimdCvt             0      0.00%     78.78% # attempts to use FU when none available
system.switch_cpus1.iq.fu_full::SimdMisc            0      0.00%     78.78% # attempts to use FU when none available
system.switch_cpus1.iq.fu_full::SimdMult            0      0.00%     78.78% # attempts to use FU when none available
system.switch_cpus1.iq.fu_full::SimdMultAcc            0      0.00%     78.78% # attempts to use FU when none available
system.switch_cpus1.iq.fu_full::SimdShift            0      0.00%     78.78% # attempts to use FU when none available
system.switch_cpus1.iq.fu_full::SimdShiftAcc            0      0.00%     78.78% # attempts to use FU when none available
system.switch_cpus1.iq.fu_full::SimdSqrt            0      0.00%     78.78% # attempts to use FU when none available
system.switch_cpus1.iq.fu_full::SimdFloatAdd            0      0.00%     78.78% # attempts to use FU when none available
system.switch_cpus1.iq.fu_full::SimdFloatAlu            0      0.00%     78.78% # attempts to use FU when none available
system.switch_cpus1.iq.fu_full::SimdFloatCmp            0      0.00%     78.78% # attempts to use FU when none available
system.switch_cpus1.iq.fu_full::SimdFloatCvt            0      0.00%     78.78% # attempts to use FU when none available
system.switch_cpus1.iq.fu_full::SimdFloatDiv            0      0.00%     78.78% # attempts to use FU when none available
system.switch_cpus1.iq.fu_full::SimdFloatMisc            0      0.00%     78.78% # attempts to use FU when none available
system.switch_cpus1.iq.fu_full::SimdFloatMult            0      0.00%     78.78% # attempts to use FU when none available
system.switch_cpus1.iq.fu_full::SimdFloatMultAcc            0      0.00%     78.78% # attempts to use FU when none available
system.switch_cpus1.iq.fu_full::SimdFloatSqrt            0      0.00%     78.78% # attempts to use FU when none available
system.switch_cpus1.iq.fu_full::MemRead          1569     11.03%     89.81% # attempts to use FU when none available
system.switch_cpus1.iq.fu_full::MemWrite         1449     10.19%    100.00% # attempts to use FU when none available
system.switch_cpus1.iq.fu_full::IprAccess            0      0.00%    100.00% # attempts to use FU when none available
system.switch_cpus1.iq.fu_full::InstPrefetch            0      0.00%    100.00% # attempts to use FU when none available
system.switch_cpus1.iq.FU_type_0::No_OpClass            0      0.00%      0.00% # Type of FU issued
system.switch_cpus1.iq.FU_type_0::IntAlu      1357384     84.25%     84.25% # Type of FU issued
system.switch_cpus1.iq.FU_type_0::IntMult        21782      1.35%     85.61% # Type of FU issued
system.switch_cpus1.iq.FU_type_0::IntDiv            0      0.00%     85.61% # Type of FU issued
system.switch_cpus1.iq.FU_type_0::FloatAdd            0      0.00%     85.61% # Type of FU issued
system.switch_cpus1.iq.FU_type_0::FloatCmp            0      0.00%     85.61% # Type of FU issued
system.switch_cpus1.iq.FU_type_0::FloatCvt            0      0.00%     85.61% # Type of FU issued
system.switch_cpus1.iq.FU_type_0::FloatMult            0      0.00%     85.61% # Type of FU issued
system.switch_cpus1.iq.FU_type_0::FloatDiv            0      0.00%     85.61% # Type of FU issued
system.switch_cpus1.iq.FU_type_0::FloatSqrt            0      0.00%     85.61% # Type of FU issued
system.switch_cpus1.iq.FU_type_0::SimdAdd            0      0.00%     85.61% # Type of FU issued
system.switch_cpus1.iq.FU_type_0::SimdAddAcc            0      0.00%     85.61% # Type of FU issued
system.switch_cpus1.iq.FU_type_0::SimdAlu            0      0.00%     85.61% # Type of FU issued
system.switch_cpus1.iq.FU_type_0::SimdCmp            0      0.00%     85.61% # Type of FU issued
system.switch_cpus1.iq.FU_type_0::SimdCvt            0      0.00%     85.61% # Type of FU issued
system.switch_cpus1.iq.FU_type_0::SimdMisc            0      0.00%     85.61% # Type of FU issued
[...]
system.cpu7.icache.ReadReq_avg_miss_latency::total 166492.878788                       # average ReadReq miss latency
system.cpu7.icache.demand_avg_miss_latency::switch_cpus7.inst 166492.878788                       # average overall miss latency
system.cpu7.icache.demand_avg_miss_latency::total 166492.878788                       # average overall miss latency
system.cpu7.icache.overall_avg_miss_latency::switch_cpus7.inst 166492.878788                       # average overall miss latency
system.cpu7.icache.overall_avg_miss_latency::total 166492.878788                       # average overall miss latency
system.cpu7.icache.blocked_cycles::no_mshrs            0                       # number of cycles access was blocked
system.cpu7.icache.blocked_cycles::no_targets            0                       # number of cycles access was blocked
system.cpu7.icache.blocked::no_mshrs                0                       # number of cycles access was blocked
system.cpu7.icache.blocked::no_targets              0                       # number of cycles access was blocked
system.cpu7.icache.avg_blocked_cycles::no_mshrs          nan                       # average number of cycles each access was blocked
system.cpu7.icache.avg_blocked_cycles::no_targets          nan                       # average number of cycles each access was blocked
system.cpu7.icache.fast_writes                      0                       # number of fast writes performed
system.cpu7.icache.cache_copies                     0                       # number of cache copies performed
system.cpu7.icache.ReadReq_mshr_hits::switch_cpus7.inst            2                       # number of ReadReq MSHR hits
system.cpu7.icache.ReadReq_mshr_hits::total            2                       # number of ReadReq MSHR hits
system.cpu7.icache.demand_mshr_hits::switch_cpus7.inst            2                       # number of demand (read+write) MSHR hits
system.cpu7.icache.demand_mshr_hits::total            2                       # number of demand (read+write) MSHR hits
system.cpu7.icache.overall_mshr_hits::switch_cpus7.inst            2                       # number of overall MSHR hits
system.cpu7.icache.overall_mshr_hits::total            2                       # number of overall MSHR hits
system.cpu7.icache.ReadReq_mshr_misses::switch_cpus7.inst           31                       # number of ReadReq MSHR misses
system.cpu7.icache.ReadReq_mshr_misses::total           31                       # number of ReadReq MSHR misses
system.cpu7.icache.demand_mshr_misses::switch_cpus7.inst           31                       # number of demand (read+write) MSHR misses
system.cpu7.icache.demand_mshr_misses::total           31                       # number of demand (read+write) MSHR misses
system.cpu7.icache.overall_mshr_misses::switch_cpus7.inst           31                       # number of overall MSHR misses
system.cpu7.icache.overall_mshr_misses::total           31                       # number of overall MSHR misses
system.cpu7.icache.ReadReq_mshr_miss_latency::switch_cpus7.inst      4947096                       # number of ReadReq MSHR miss cycles
system.cpu7.icache.ReadReq_mshr_miss_latency::total      4947096                       # number of ReadReq MSHR miss cycles
system.cpu7.icache.demand_mshr_miss_latency::switch_cpus7.inst      4947096                       # number of demand (read+write) MSHR miss cycles
system.cpu7.icache.demand_mshr_miss_latency::total      4947096                       # number of demand (read+write) MSHR miss cycles
system.cpu7.icache.overall_mshr_miss_latency::switch_cpus7.inst      4947096                       # number of overall MSHR miss cycles
system.cpu7.icache.overall_mshr_miss_latency::total      4947096                       # number of overall MSHR miss cycles
system.cpu7.icache.ReadReq_mshr_miss_rate::switch_cpus7.inst     0.000220                       # mshr miss rate for ReadReq accesses
system.cpu7.icache.ReadReq_mshr_miss_rate::total     0.000220                       # mshr miss rate for ReadReq accesses
system.cpu7.icache.demand_mshr_miss_rate::switch_cpus7.inst     0.000220                       # mshr miss rate for demand accesses
system.cpu7.icache.demand_mshr_miss_rate::total     0.000220                       # mshr miss rate for demand accesses
system.cpu7.icache.overall_mshr_miss_rate::switch_cpus7.inst     0.000220                       # mshr miss rate for overall accesses
system.cpu7.icache.overall_mshr_miss_rate::total     0.000220                       # mshr miss rate for overall accesses
system.cpu7.icache.ReadReq_avg_mshr_miss_latency::switch_cpus7.inst 159583.741935                       # average ReadReq mshr miss latency
system.cpu7.icache.ReadReq_avg_mshr_miss_latency::total 159583.741935                       # average ReadReq mshr miss latency
system.cpu7.icache.demand_avg_mshr_miss_latency::switch_cpus7.inst 159583.741935                       # average overall mshr miss latency
system.cpu7.icache.demand_avg_mshr_miss_latency::total 159583.741935                       # average overall mshr miss latency
system.cpu7.icache.overall_avg_mshr_miss_latency::switch_cpus7.inst 159583.741935                       # average overall mshr miss latency
system.cpu7.icache.overall_avg_mshr_miss_latency::total 159583.741935                       # average overall mshr miss latency
system.cpu7.icache.no_allocate_misses               0                       # Number of misses that were no-allocate
system.cpu7.dcache.replacements                   499                       # number of replacements
system.cpu7.dcache.tagsinuse                      256                       # Cycle average of tags in use
system.cpu7.dcache.total_refs               127661697                       # Total number of references to valid blocks.
system.cpu7.dcache.sampled_refs                   755                       # Sample count of references to valid blocks.
system.cpu7.dcache.avg_refs              169088.340397                       # Average number of references to valid blocks.
system.cpu7.dcache.warmup_cycle                     0                       # Cycle when the warmup percentage was hit.
system.cpu7.dcache.occ_blocks::switch_cpus7.data   154.643293                       # Average occupied blocks per requestor
system.cpu7.dcache.occ_blocks::cpu7.data   101.356707                       # Average occupied blocks per requestor
system.cpu7.dcache.occ_percent::switch_cpus7.data     0.604075                       # Average percentage of cache occupancy
system.cpu7.dcache.occ_percent::cpu7.data     0.395925                       # Average percentage of cache occupancy
system.cpu7.dcache.occ_percent::total               1                       # Average percentage of cache occupancy
system.cpu7.dcache.ReadReq_hits::switch_cpus7.data        95715                       # number of ReadReq hits
system.cpu7.dcache.ReadReq_hits::total          95715                       # number of ReadReq hits
system.cpu7.dcache.WriteReq_hits::switch_cpus7.data        79878                       # number of WriteReq hits
system.cpu7.dcache.WriteReq_hits::total         79878                       # number of WriteReq hits
system.cpu7.dcache.LoadLockedReq_hits::switch_cpus7.data          195                       # number of LoadLockedReq hits
system.cpu7.dcache.LoadLockedReq_hits::total          195                       # number of LoadLockedReq hits
system.cpu7.dcache.StoreCondReq_hits::switch_cpus7.data          194                       # number of StoreCondReq hits
system.cpu7.dcache.StoreCondReq_hits::total          194                       # number of StoreCondReq hits
system.cpu7.dcache.demand_hits::switch_cpus7.data       175593                       # number of demand (read+write) hits
system.cpu7.dcache.demand_hits::total          175593                       # number of demand (read+write) hits
system.cpu7.dcache.overall_hits::switch_cpus7.data       175593                       # number of overall hits
system.cpu7.dcache.overall_hits::total         175593                       # number of overall hits
system.cpu7.dcache.ReadReq_misses::switch_cpus7.data         1586                       # number of ReadReq misses
system.cpu7.dcache.ReadReq_misses::total         1586                       # number of ReadReq misses
system.cpu7.dcache.WriteReq_misses::switch_cpus7.data           16                       # number of WriteReq misses
system.cpu7.dcache.WriteReq_misses::total           16                       # number of WriteReq misses
system.cpu7.dcache.demand_misses::switch_cpus7.data         1602                       # number of demand (read+write) misses
system.cpu7.dcache.demand_misses::total          1602                       # number of demand (read+write) misses
system.cpu7.dcache.overall_misses::switch_cpus7.data         1602                       # number of overall misses
system.cpu7.dcache.overall_misses::total         1602                       # number of overall misses
system.cpu7.dcache.ReadReq_miss_latency::switch_cpus7.data    180257464                       # number of ReadReq miss cycles
system.cpu7.dcache.ReadReq_miss_latency::total    180257464                       # number of ReadReq miss cycles
system.cpu7.dcache.WriteReq_miss_latency::switch_cpus7.data      1301982                       # number of WriteReq miss cycles
system.cpu7.dcache.WriteReq_miss_latency::total      1301982                       # number of WriteReq miss cycles
system.cpu7.dcache.demand_miss_latency::switch_cpus7.data    181559446                       # number of demand (read+write) miss cycles
system.cpu7.dcache.demand_miss_latency::total    181559446                       # number of demand (read+write) miss cycles
system.cpu7.dcache.overall_miss_latency::switch_cpus7.data    181559446                       # number of overall miss cycles
system.cpu7.dcache.overall_miss_latency::total    181559446                       # number of overall miss cycles
system.cpu7.dcache.ReadReq_accesses::switch_cpus7.data        97301                       # number of ReadReq accesses(hits+misses)
system.cpu7.dcache.ReadReq_accesses::total        97301                       # number of ReadReq accesses(hits+misses)
system.cpu7.dcache.WriteReq_accesses::switch_cpus7.data        79894                       # number of WriteReq accesses(hits+misses)
system.cpu7.dcache.WriteReq_accesses::total        79894                       # number of WriteReq accesses(hits+misses)
system.cpu7.dcache.LoadLockedReq_accesses::switch_cpus7.data          195                       # number of LoadLockedReq accesses(hits+misses)
system.cpu7.dcache.LoadLockedReq_accesses::total          195                       # number of LoadLockedReq accesses(hits+misses)
system.cpu7.dcache.StoreCondReq_accesses::switch_cpus7.data          194                       # number of StoreCondReq accesses(hits+misses)
system.cpu7.dcache.StoreCondReq_accesses::total          194                       # number of StoreCondReq accesses(hits+misses)
system.cpu7.dcache.demand_accesses::switch_cpus7.data       177195                       # number of demand (read+write) accesses
system.cpu7.dcache.demand_accesses::total       177195                       # number of demand (read+write) accesses
system.cpu7.dcache.overall_accesses::switch_cpus7.data       177195                       # number of overall (read+write) accesses
system.cpu7.dcache.overall_accesses::total       177195                       # number of overall (read+write) accesses
system.cpu7.dcache.ReadReq_miss_rate::switch_cpus7.data     0.016300                       # miss rate for ReadReq accesses
system.cpu7.dcache.ReadReq_miss_rate::total     0.016300                       # miss rate for ReadReq accesses
system.cpu7.dcache.WriteReq_miss_rate::switch_cpus7.data     0.000200                       # miss rate for WriteReq accesses
system.cpu7.dcache.WriteReq_miss_rate::total     0.000200                       # miss rate for WriteReq accesses
system.cpu7.dcache.demand_miss_rate::switch_cpus7.data     0.009041                       # miss rate for demand accesses
system.cpu7.dcache.demand_miss_rate::total     0.009041                       # miss rate for demand accesses
system.cpu7.dcache.overall_miss_rate::switch_cpus7.data     0.009041                       # miss rate for overall accesses
system.cpu7.dcache.overall_miss_rate::total     0.009041                       # miss rate for overall accesses
system.cpu7.dcache.ReadReq_avg_miss_latency::switch_cpus7.data 113655.399748                       # average ReadReq miss latency
system.cpu7.dcache.ReadReq_avg_miss_latency::total 113655.399748                       # average ReadReq miss latency
system.cpu7.dcache.WriteReq_avg_miss_latency::switch_cpus7.data 81373.875000                       # average WriteReq miss latency
system.cpu7.dcache.WriteReq_avg_miss_latency::total 81373.875000                       # average WriteReq miss latency
system.cpu7.dcache.demand_avg_miss_latency::switch_cpus7.data 113332.987516                       # average overall miss latency
system.cpu7.dcache.demand_avg_miss_latency::total 113332.987516                       # average overall miss latency
system.cpu7.dcache.overall_avg_miss_latency::switch_cpus7.data 113332.987516                       # average overall miss latency
system.cpu7.dcache.overall_avg_miss_latency::total 113332.987516                       # average overall miss latency
system.cpu7.dcache.blocked_cycles::no_mshrs            0                       # number of cycles access was blocked
system.cpu7.dcache.blocked_cycles::no_targets            0                       # number of cycles access was blocked
system.cpu7.dcache.blocked::no_mshrs                0                       # number of cycles access was blocked
system.cpu7.dcache.blocked::no_targets              0                       # number of cycles access was blocked
system.cpu7.dcache.avg_blocked_cycles::no_mshrs          nan                       # average number of cycles each access was blocked
system.cpu7.dcache.avg_blocked_cycles::no_targets          nan                       # average number of cycles each access was blocked
system.cpu7.dcache.fast_writes                      0                       # number of fast writes performed
system.cpu7.dcache.cache_copies                     0                       # number of cache copies performed
system.cpu7.dcache.writebacks::writebacks          108                       # number of writebacks
system.cpu7.dcache.writebacks::total              108                       # number of writebacks
system.cpu7.dcache.ReadReq_mshr_hits::switch_cpus7.data         1090                       # number of ReadReq MSHR hits
system.cpu7.dcache.ReadReq_mshr_hits::total         1090                       # number of ReadReq MSHR hits
system.cpu7.dcache.WriteReq_mshr_hits::switch_cpus7.data           13                       # number of WriteReq MSHR hits
system.cpu7.dcache.WriteReq_mshr_hits::total           13                       # number of WriteReq MSHR hits
system.cpu7.dcache.demand_mshr_hits::switch_cpus7.data         1103                       # number of demand (read+write) MSHR hits
system.cpu7.dcache.demand_mshr_hits::total         1103                       # number of demand (read+write) MSHR hits
system.cpu7.dcache.overall_mshr_hits::switch_cpus7.data         1103                       # number of overall MSHR hits
system.cpu7.dcache.overall_mshr_hits::total         1103                       # number of overall MSHR hits
system.cpu7.dcache.ReadReq_mshr_misses::switch_cpus7.data          496                       # number of ReadReq MSHR misses
system.cpu7.dcache.ReadReq_mshr_misses::total          496                       # number of ReadReq MSHR misses
system.cpu7.dcache.WriteReq_mshr_misses::switch_cpus7.data            3                       # number of WriteReq MSHR misses
system.cpu7.dcache.WriteReq_mshr_misses::total            3                       # number of WriteReq MSHR misses
system.cpu7.dcache.demand_mshr_misses::switch_cpus7.data          499                       # number of demand (read+write) MSHR misses
system.cpu7.dcache.demand_mshr_misses::total          499                       # number of demand (read+write) MSHR misses
system.cpu7.dcache.overall_mshr_misses::switch_cpus7.data          499                       # number of overall MSHR misses
system.cpu7.dcache.overall_mshr_misses::total          499                       # number of overall MSHR misses
system.cpu7.dcache.ReadReq_mshr_miss_latency::switch_cpus7.data     46136104                       # number of ReadReq MSHR miss cycles
system.cpu7.dcache.ReadReq_mshr_miss_latency::total     46136104                       # number of ReadReq MSHR miss cycles
system.cpu7.dcache.WriteReq_mshr_miss_latency::switch_cpus7.data       197545                       # number of WriteReq MSHR miss cycles
system.cpu7.dcache.WriteReq_mshr_miss_latency::total       197545                       # number of WriteReq MSHR miss cycles
system.cpu7.dcache.demand_mshr_miss_latency::switch_cpus7.data     46333649                       # number of demand (read+write) MSHR miss cycles
system.cpu7.dcache.demand_mshr_miss_latency::total     46333649                       # number of demand (read+write) MSHR miss cycles
system.cpu7.dcache.overall_mshr_miss_latency::switch_cpus7.data     46333649                       # number of overall MSHR miss cycles
system.cpu7.dcache.overall_mshr_miss_latency::total     46333649                       # number of overall MSHR miss cycles
system.cpu7.dcache.ReadReq_mshr_miss_rate::switch_cpus7.data     0.005098                       # mshr miss rate for ReadReq accesses
system.cpu7.dcache.ReadReq_mshr_miss_rate::total     0.005098                       # mshr miss rate for ReadReq accesses
system.cpu7.dcache.WriteReq_mshr_miss_rate::switch_cpus7.data     0.000038                       # mshr miss rate for WriteReq accesses
system.cpu7.dcache.WriteReq_mshr_miss_rate::total     0.000038                       # mshr miss rate for WriteReq accesses
system.cpu7.dcache.demand_mshr_miss_rate::switch_cpus7.data     0.002816                       # mshr miss rate for demand accesses
system.cpu7.dcache.demand_mshr_miss_rate::total     0.002816                       # mshr miss rate for demand accesses
system.cpu7.dcache.overall_mshr_miss_rate::switch_cpus7.data     0.002816                       # mshr miss rate for overall accesses
system.cpu7.dcache.overall_mshr_miss_rate::total     0.002816                       # mshr miss rate for overall accesses
system.cpu7.dcache.ReadReq_avg_mshr_miss_latency::switch_cpus7.data 93016.338710                       # average ReadReq mshr miss latency
system.cpu7.dcache.ReadReq_avg_mshr_miss_latency::total 93016.338710                       # average ReadReq mshr miss latency
system.cpu7.dcache.WriteReq_avg_mshr_miss_latency::switch_cpus7.data 65848.333333                       # average WriteReq mshr miss latency
system.cpu7.dcache.WriteReq_avg_mshr_miss_latency::total 65848.333333                       # average WriteReq mshr miss latency
system.cpu7.dcache.demand_avg_mshr_miss_latency::switch_cpus7.data 92853.004008                       # average overall mshr miss latency
system.cpu7.dcache.demand_avg_mshr_miss_latency::total 92853.004008                       # average overall mshr miss latency
system.cpu7.dcache.overall_avg_mshr_miss_latency::switch_cpus7.data 92853.004008                       # average overall mshr miss latency
system.cpu7.dcache.overall_avg_mshr_miss_latency::total 92853.004008                       # average overall mshr miss latency
system.cpu7.dcache.no_allocate_misses               0                       # Number of misses that were no-allocate

---------- End Simulation Statistics   ----------
