
---------- Begin Simulation Statistics ----------
sim_seconds                                  0.117868                       # Number of seconds simulated
sim_ticks                                117867876843                       # Number of ticks simulated
final_tick                               687699169977                       # Number of ticks from beginning of simulation (restored from checkpoints and never reset)
sim_freq                                 1000000000000                       # Frequency of simulated ticks
host_inst_rate                                 194827                       # Simulator instruction rate (inst/s)
host_op_rate                                   250530                       # Simulator op (including micro ops) rate (op/s)
host_tick_rate                                6572175                       # Simulator tick rate (ticks/s)
host_mem_usage                               16912244                       # Number of bytes of host memory used
host_seconds                                 17934.38                       # Real time elapsed on the host
sim_insts                                  3494100791                       # Number of instructions simulated
sim_ops                                    4493103370                       # Number of ops (including micro ops) simulated
system.physmem.bytes_read::switch_cpus0.inst         1792                       # Number of bytes read from this memory
system.physmem.bytes_read::switch_cpus0.data      1654144                       # Number of bytes read from this memory
system.physmem.bytes_read::switch_cpus1.inst         1664                       # Number of bytes read from this memory
system.physmem.bytes_read::switch_cpus1.data      1265408                       # Number of bytes read from this memory
system.physmem.bytes_read::switch_cpus2.inst         1664                       # Number of bytes read from this memory
system.physmem.bytes_read::switch_cpus2.data      2636544                       # Number of bytes read from this memory
system.physmem.bytes_read::total              5561216                       # Number of bytes read from this memory
system.physmem.bytes_inst_read::switch_cpus0.inst         1792                       # Number of instructions bytes read from this memory
system.physmem.bytes_inst_read::switch_cpus1.inst         1664                       # Number of instructions bytes read from this memory
system.physmem.bytes_inst_read::switch_cpus2.inst         1664                       # Number of instructions bytes read from this memory
system.physmem.bytes_inst_read::total            5120                       # Number of instructions bytes read from this memory
system.physmem.bytes_written::writebacks      1569792                       # Number of bytes written to this memory
system.physmem.bytes_written::total           1569792                       # Number of bytes written to this memory
system.physmem.num_reads::switch_cpus0.inst           14                       # Number of read requests responded to by this memory
system.physmem.num_reads::switch_cpus0.data        12923                       # Number of read requests responded to by this memory
system.physmem.num_reads::switch_cpus1.inst           13                       # Number of read requests responded to by this memory
system.physmem.num_reads::switch_cpus1.data         9886                       # Number of read requests responded to by this memory
system.physmem.num_reads::switch_cpus2.inst           13                       # Number of read requests responded to by this memory
system.physmem.num_reads::switch_cpus2.data        20598                       # Number of read requests responded to by this memory
system.physmem.num_reads::total                 43447                       # Number of read requests responded to by this memory
system.physmem.num_writes::writebacks           12264                       # Number of write requests responded to by this memory
system.physmem.num_writes::functional               0                       # Number of write requests responded to by this memory
system.physmem.num_writes::interrupt                0                       # Number of write requests responded to by this memory
system.physmem.num_writes::switch_cpus0.dtb.walker            0                       # Number of write requests responded to by this memory
system.physmem.num_writes::switch_cpus0.itb.walker            0                       # Number of write requests responded to by this memory
system.physmem.num_writes::switch_cpus0.inst            0                       # Number of write requests responded to by this memory
system.physmem.num_writes::switch_cpus0.data            0                       # Number of write requests responded to by this memory
system.physmem.num_writes::switch_cpus1.dtb.walker            0                       # Number of write requests responded to by this memory
system.physmem.num_writes::switch_cpus1.itb.walker            0                       # Number of write requests responded to by this memory
system.physmem.num_writes::switch_cpus1.inst            0                       # Number of write requests responded to by this memory
system.physmem.num_writes::switch_cpus1.data            0                       # Number of write requests responded to by this memory
system.physmem.num_writes::switch_cpus2.dtb.walker            0                       # Number of write requests responded to by this memory
system.physmem.num_writes::switch_cpus2.itb.walker            0                       # Number of write requests responded to by this memory
system.physmem.num_writes::switch_cpus2.inst            0                       # Number of write requests responded to by this memory
system.physmem.num_writes::switch_cpus2.data            0                       # Number of write requests responded to by this memory
system.physmem.num_writes::cpu0.dtb.walker            0                       # Number of write requests responded to by this memory
system.physmem.num_writes::cpu0.itb.walker            0                       # Number of write requests responded to by this memory
system.physmem.num_writes::cpu0.inst                0                       # Number of write requests responded to by this memory
system.physmem.num_writes::cpu0.data                0                       # Number of write requests responded to by this memory
system.physmem.num_writes::cpu1.dtb.walker            0                       # Number of write requests responded to by this memory
system.physmem.num_writes::cpu1.itb.walker            0                       # Number of write requests responded to by this memory
system.physmem.num_writes::cpu1.inst                0                       # Number of write requests responded to by this memory
system.physmem.num_writes::cpu1.data                0                       # Number of write requests responded to by this memory
system.physmem.num_writes::cpu2.dtb.walker            0                       # Number of write requests responded to by this memory
system.physmem.num_writes::cpu2.itb.walker            0                       # Number of write requests responded to by this memory
system.physmem.num_writes::cpu2.inst                0                       # Number of write requests responded to by this memory
system.physmem.num_writes::cpu2.data                0                       # Number of write requests responded to by this memory
system.physmem.num_writes::total                12264                       # Number of write requests responded to by this memory
system.physmem.bw_read::switch_cpus0.inst        15203                       # Total read bandwidth from this memory (bytes/s)
system.physmem.bw_read::switch_cpus0.data     14033883                       # Total read bandwidth from this memory (bytes/s)
system.physmem.bw_read::switch_cpus1.inst        14118                       # Total read bandwidth from this memory (bytes/s)
system.physmem.bw_read::switch_cpus1.data     10735817                       # Total read bandwidth from this memory (bytes/s)
system.physmem.bw_read::switch_cpus2.inst        14118                       # Total read bandwidth from this memory (bytes/s)
system.physmem.bw_read::switch_cpus2.data     22368639                       # Total read bandwidth from this memory (bytes/s)
system.physmem.bw_read::total                47181778                       # Total read bandwidth from this memory (bytes/s)
system.physmem.bw_inst_read::switch_cpus0.inst        15203                       # Instruction read bandwidth from this memory (bytes/s)
system.physmem.bw_inst_read::switch_cpus1.inst        14118                       # Instruction read bandwidth from this memory (bytes/s)
system.physmem.bw_inst_read::switch_cpus2.inst        14118                       # Instruction read bandwidth from this memory (bytes/s)
system.physmem.bw_inst_read::total              43438                       # Instruction read bandwidth from this memory (bytes/s)
system.physmem.bw_write::writebacks          13318234                       # Write bandwidth from this memory (bytes/s)
system.physmem.bw_write::total               13318234                       # Write bandwidth from this memory (bytes/s)
system.physmem.bw_total::writebacks          13318234                       # Total bandwidth to/from this memory (bytes/s)
system.physmem.bw_total::switch_cpus0.inst        15203                       # Total bandwidth to/from this memory (bytes/s)
system.physmem.bw_total::switch_cpus0.data     14033883                       # Total bandwidth to/from this memory (bytes/s)
system.physmem.bw_total::switch_cpus1.inst        14118                       # Total bandwidth to/from this memory (bytes/s)
system.physmem.bw_total::switch_cpus1.data     10735817                       # Total bandwidth to/from this memory (bytes/s)
system.physmem.bw_total::switch_cpus2.inst        14118                       # Total bandwidth to/from this memory (bytes/s)
system.physmem.bw_total::switch_cpus2.data     22368639                       # Total bandwidth to/from this memory (bytes/s)
system.physmem.bw_total::total               60500012                       # Total bandwidth to/from this memory (bytes/s)
system.switch_cpus0.dtb.inst_hits                   0                       # ITB inst hits
system.switch_cpus0.dtb.inst_misses                 0                       # ITB inst misses
system.switch_cpus0.dtb.read_hits                   0                       # DTB read hits
system.switch_cpus0.dtb.read_misses                 0                       # DTB read misses
system.switch_cpus0.dtb.write_hits                  0                       # DTB write hits
system.switch_cpus0.dtb.write_misses                0                       # DTB write misses
system.switch_cpus0.dtb.flush_tlb                   0                       # Number of times complete TLB was flushed
system.switch_cpus0.dtb.flush_tlb_mva               0                       # Number of times TLB was flushed by MVA
system.switch_cpus0.dtb.flush_tlb_mva_asid            0                       # Number of times TLB was flushed by MVA & ASID
system.switch_cpus0.dtb.flush_tlb_asid              0                       # Number of times TLB was flushed by ASID
system.switch_cpus0.dtb.flush_entries               0                       # Number of entries that have been flushed from TLB
system.switch_cpus0.dtb.align_faults                0                       # Number of TLB faults due to alignment restrictions
system.switch_cpus0.dtb.prefetch_faults             0                       # Number of TLB faults due to prefetch
system.switch_cpus0.dtb.domain_faults               0                       # Number of TLB faults due to domain restrictions
system.switch_cpus0.dtb.perms_faults                0                       # Number of TLB faults due to permissions restrictions
system.switch_cpus0.dtb.read_accesses               0                       # DTB read accesses
system.switch_cpus0.dtb.write_accesses              0                       # DTB write accesses
system.switch_cpus0.dtb.inst_accesses               0                       # ITB inst accesses
system.switch_cpus0.dtb.hits                        0                       # DTB hits
system.switch_cpus0.dtb.misses                      0                       # DTB misses
system.switch_cpus0.dtb.accesses                    0                       # DTB accesses
system.switch_cpus0.itb.inst_hits                   0                       # ITB inst hits
system.switch_cpus0.itb.inst_misses                 0                       # ITB inst misses
system.switch_cpus0.itb.read_hits                   0                       # DTB read hits
system.switch_cpus0.itb.read_misses                 0                       # DTB read misses
system.switch_cpus0.itb.write_hits                  0                       # DTB write hits
system.switch_cpus0.itb.write_misses                0                       # DTB write misses
system.switch_cpus0.itb.flush_tlb                   0                       # Number of times complete TLB was flushed
system.switch_cpus0.itb.flush_tlb_mva               0                       # Number of times TLB was flushed by MVA
system.switch_cpus0.itb.flush_tlb_mva_asid            0                       # Number of times TLB was flushed by MVA & ASID
system.switch_cpus0.itb.flush_tlb_asid              0                       # Number of times TLB was flushed by ASID
system.switch_cpus0.itb.flush_entries               0                       # Number of entries that have been flushed from TLB
system.switch_cpus0.itb.align_faults                0                       # Number of TLB faults due to alignment restrictions
system.switch_cpus0.itb.prefetch_faults             0                       # Number of TLB faults due to prefetch
system.switch_cpus0.itb.domain_faults               0                       # Number of TLB faults due to domain restrictions
system.switch_cpus0.itb.perms_faults                0                       # Number of TLB faults due to permissions restrictions
system.switch_cpus0.itb.read_accesses               0                       # DTB read accesses
system.switch_cpus0.itb.write_accesses              0                       # DTB write accesses
system.switch_cpus0.itb.inst_accesses               0                       # ITB inst accesses
system.switch_cpus0.itb.hits                        0                       # DTB hits
system.switch_cpus0.itb.misses                      0                       # DTB misses
system.switch_cpus0.itb.accesses                    0                       # DTB accesses
system.cpu0.workload.num_syscalls                   0                       # Number of system calls
system.switch_cpus0.numCycles               282656780                       # number of cpu cycles simulated
system.switch_cpus0.numWorkItemsStarted             0                       # number of work items this cpu started
system.switch_cpus0.numWorkItemsCompleted            0                       # number of work items this cpu completed
system.switch_cpus0.BPredUnit.lookups        21113083                       # Number of BP lookups
system.switch_cpus0.BPredUnit.condPredicted     18750289                       # Number of conditional branches predicted
system.switch_cpus0.BPredUnit.condIncorrect      1827990                       # Number of conditional branches incorrect
system.switch_cpus0.BPredUnit.BTBLookups     11091771                       # Number of BTB lookups
system.switch_cpus0.BPredUnit.BTBHits        10810124                       # Number of BTB hits
system.switch_cpus0.BPredUnit.BTBCorrect            0                       # Number of correct BTB predictions (this stat may not work properly.
system.switch_cpus0.BPredUnit.usedRAS         1340203                       # Number of times the RAS was used to get a target.
system.switch_cpus0.BPredUnit.RASInCorrect        52387                       # Number of incorrect RAS predictions.
system.switch_cpus0.fetch.icacheStallCycles    227844403                       # Number of cycles fetch is stalled on an Icache miss
system.switch_cpus0.fetch.Insts             119565205                       # Number of instructions fetch has processed
system.switch_cpus0.fetch.Branches           21113083                       # Number of branches that fetch encountered
system.switch_cpus0.fetch.predictedBranches     12150327                       # Number of branches that fetch has predicted taken
system.switch_cpus0.fetch.Cycles             24170968                       # Number of cycles fetch has run and was not squashing or blocked
system.switch_cpus0.fetch.SquashCycles        5588918                       # Number of cycles fetch has spent squashing
system.switch_cpus0.fetch.BlockedCycles       2396922                       # Number of cycles fetch has spent blocked
system.switch_cpus0.fetch.PendingTrapStallCycles           23                       # Number of stall cycles due to pending traps
system.switch_cpus0.fetch.CacheLines         13944814                       # Number of cache lines fetched
system.switch_cpus0.fetch.IcacheSquashes      1821468                       # Number of outstanding Icache misses that were squashed
system.switch_cpus0.fetch.rateDist::samples    258163777                       # Number of instructions fetched each cycle (Total)
system.switch_cpus0.fetch.rateDist::mean     0.521686                       # Number of instructions fetched each cycle (Total)
system.switch_cpus0.fetch.rateDist::stdev     1.771124                       # Number of instructions fetched each cycle (Total)
system.switch_cpus0.fetch.rateDist::underflows            0      0.00%      0.00% # Number of instructions fetched each cycle (Total)
system.switch_cpus0.fetch.rateDist::0       233992809     90.64%     90.64% # Number of instructions fetched each cycle (Total)
system.switch_cpus0.fetch.rateDist::1         1096225      0.42%     91.06% # Number of instructions fetched each cycle (Total)
system.switch_cpus0.fetch.rateDist::2         2036190      0.79%     91.85% # Number of instructions fetched each cycle (Total)
system.switch_cpus0.fetch.rateDist::3         1764689      0.68%     92.53% # Number of instructions fetched each cycle (Total)
system.switch_cpus0.fetch.rateDist::4         3577659      1.39%     93.92% # Number of instructions fetched each cycle (Total)
system.switch_cpus0.fetch.rateDist::5         4335587      1.68%     95.60% # Number of instructions fetched each cycle (Total)
system.switch_cpus0.fetch.rateDist::6         1044920      0.40%     96.00% # Number of instructions fetched each cycle (Total)
system.switch_cpus0.fetch.rateDist::7          565845      0.22%     96.22% # Number of instructions fetched each cycle (Total)
system.switch_cpus0.fetch.rateDist::8         9749853      3.78%    100.00% # Number of instructions fetched each cycle (Total)
system.switch_cpus0.fetch.rateDist::overflows            0      0.00%    100.00% # Number of instructions fetched each cycle (Total)
system.switch_cpus0.fetch.rateDist::min_value            0                       # Number of instructions fetched each cycle (Total)
system.switch_cpus0.fetch.rateDist::max_value            8                       # Number of instructions fetched each cycle (Total)
system.switch_cpus0.fetch.rateDist::total    258163777                       # Number of instructions fetched each cycle (Total)
system.switch_cpus0.fetch.branchRate         0.074695                       # Number of branch fetches per cycle
system.switch_cpus0.fetch.rate               0.423005                       # Number of inst fetches per cycle
system.switch_cpus0.decode.IdleCycles       226184311                       # Number of cycles decode is idle
system.switch_cpus0.decode.BlockedCycles      4074442                       # Number of cycles decode is blocked
system.switch_cpus0.decode.RunCycles         24133239                       # Number of cycles decode is running
system.switch_cpus0.decode.UnblockCycles        25155                       # Number of cycles decode is unblocking
system.switch_cpus0.decode.SquashCycles       3746629                       # Number of cycles decode is squashing
system.switch_cpus0.decode.BranchResolved      2060462                       # Number of times decode resolved a branch
system.switch_cpus0.decode.BranchMispred         4832                       # Number of times decode detected a branch misprediction
system.switch_cpus0.decode.DecodedInsts     134602091                       # Number of instructions handled by decode
system.switch_cpus0.decode.SquashedInsts         1334                       # Number of squashed instructions handled by decode
system.switch_cpus0.rename.SquashCycles       3746629                       # Number of cycles rename is squashing
system.switch_cpus0.rename.IdleCycles       226455856                       # Number of cycles rename is idle
system.switch_cpus0.rename.BlockCycles        1987933                       # Number of cycles rename is blocking
system.switch_cpus0.rename.serializeStallCycles      1272191                       # count of cycles rename stalled for serializing inst
system.switch_cpus0.rename.RunCycles         23876350                       # Number of cycles rename is running
system.switch_cpus0.rename.UnblockCycles       824816                       # Number of cycles rename is unblocking
system.switch_cpus0.rename.RenamedInsts     134490378                       # Number of instructions processed by rename
system.switch_cpus0.rename.ROBFullEvents            9                       # Number of times rename has blocked due to ROB full
system.switch_cpus0.rename.IQFullEvents         87922                       # Number of times rename has blocked due to IQ full
system.switch_cpus0.rename.LSQFullEvents       506560                       # Number of times rename has blocked due to LSQ full
system.switch_cpus0.rename.RenamedOperands    177541457                       # Number of destination operands rename has renamed
system.switch_cpus0.rename.RenameLookups    608086202                       # Number of register rename lookups that rename has made
system.switch_cpus0.rename.int_rename_lookups    608086202                       # Number of integer rename lookups
system.switch_cpus0.rename.CommittedMaps    146711191                       # Number of HB maps that are committed
system.switch_cpus0.rename.UndoneMaps        30830258                       # Number of HB maps that are undone due to squashing
system.switch_cpus0.rename.serializingInsts        18452                       # count of serializing insts renamed
system.switch_cpus0.rename.tempSerializingInsts         9232                       # count of temporary serializing insts renamed
system.switch_cpus0.rename.skidInsts          2573603                       # count of insts added to the skid buffer
system.switch_cpus0.memDep0.insertedLoads     23435040                       # Number of loads inserted to the mem dependence unit.
system.switch_cpus0.memDep0.insertedStores      4143231                       # Number of stores inserted to the mem dependence unit.
system.switch_cpus0.memDep0.conflictingLoads        75149                       # Number of conflicting loads.
system.switch_cpus0.memDep0.conflictingStores       928148                       # Number of conflicting stores.
system.switch_cpus0.iq.iqInstsAdded         133986970                       # Number of instructions added to the IQ (excludes non-spec)
system.switch_cpus0.iq.iqNonSpecInstsAdded        18452                       # Number of non-speculative instructions added to the IQ
system.switch_cpus0.iq.iqInstsIssued        127231307                       # Number of instructions issued
system.switch_cpus0.iq.iqSquashedInstsIssued        80434                       # Number of squashed instructions issued
system.switch_cpus0.iq.iqSquashedInstsExamined     20282780                       # Number of squashed instructions iterated over during squash; mainly for profiling
system.switch_cpus0.iq.iqSquashedOperandsExamined     42644094                       # Number of squashed operands that are examined and possibly removed from graph
system.switch_cpus0.iq.iqSquashedNonSpecRemoved           12                       # Number of squashed non-spec instructions that were removed
system.switch_cpus0.iq.issued_per_cycle::samples    258163777                       # Number of insts issued each cycle
system.switch_cpus0.iq.issued_per_cycle::mean     0.492832                       # Number of insts issued each cycle
system.switch_cpus0.iq.issued_per_cycle::stdev     1.175898                       # Number of insts issued each cycle
system.switch_cpus0.iq.issued_per_cycle::underflows            0      0.00%      0.00% # Number of insts issued each cycle
system.switch_cpus0.iq.issued_per_cycle::0    203716890     78.91%     78.91% # Number of insts issued each cycle
system.switch_cpus0.iq.issued_per_cycle::1     22827071      8.84%     87.75% # Number of insts issued each cycle
system.switch_cpus0.iq.issued_per_cycle::2     11702951      4.53%     92.29% # Number of insts issued each cycle
system.switch_cpus0.iq.issued_per_cycle::3      6744190      2.61%     94.90% # Number of insts issued each cycle
system.switch_cpus0.iq.issued_per_cycle::4      7497674      2.90%     97.80% # Number of insts issued each cycle
system.switch_cpus0.iq.issued_per_cycle::5      3758654      1.46%     99.26% # Number of insts issued each cycle
system.switch_cpus0.iq.issued_per_cycle::6      1499492      0.58%     99.84% # Number of insts issued each cycle
system.switch_cpus0.iq.issued_per_cycle::7       349994      0.14%     99.97% # Number of insts issued each cycle
system.switch_cpus0.iq.issued_per_cycle::8        66861      0.03%    100.00% # Number of insts issued each cycle
system.switch_cpus0.iq.issued_per_cycle::overflows            0      0.00%    100.00% # Number of insts issued each cycle
system.switch_cpus0.iq.issued_per_cycle::min_value            0                       # Number of insts issued each cycle
system.switch_cpus0.iq.issued_per_cycle::max_value            8                       # Number of insts issued each cycle
system.switch_cpus0.iq.issued_per_cycle::total    258163777                       # Number of insts issued each cycle
system.switch_cpus0.iq.fu_full::No_OpClass            0      0.00%      0.00% # attempts to use FU when none available
system.switch_cpus0.iq.fu_full::IntAlu         233805     47.82%     47.82% # attempts to use FU when none available
system.switch_cpus0.iq.fu_full::IntMult             0      0.00%     47.82% # attempts to use FU when none available
system.switch_cpus0.iq.fu_full::IntDiv              0      0.00%     47.82% # attempts to use FU when none available
system.switch_cpus0.iq.fu_full::FloatAdd            0      0.00%     47.82% # attempts to use FU when none available
system.switch_cpus0.iq.fu_full::FloatCmp            0      0.00%     47.82% # attempts to use FU when none available
system.switch_cpus0.iq.fu_full::FloatCvt            0      0.00%     47.82% # attempts to use FU when none available
system.switch_cpus0.iq.fu_full::FloatMult            0      0.00%     47.82% # attempts to use FU when none available
system.switch_cpus0.iq.fu_full::FloatDiv            0      0.00%     47.82% # attempts to use FU when none available
system.switch_cpus0.iq.fu_full::FloatSqrt            0      0.00%     47.82% # attempts to use FU when none available
system.switch_cpus0.iq.fu_full::SimdAdd             0      0.00%     47.82% # attempts to use FU when none available
system.switch_cpus0.iq.fu_full::SimdAddAcc            0      0.00%     47.82% # attempts to use FU when none available
system.switch_cpus0.iq.fu_full::SimdAlu             0      0.00%     47.82% # attempts to use FU when none available
system.switch_cpus0.iq.fu_full::SimdCmp             0      0.00%     47.82% # attempts to use FU when none available
system.switch_cpus0.iq.fu_full::SimdCvt             0      0.00%     47.82% # attempts to use FU when none available
system.switch_cpus0.iq.fu_full::SimdMisc            0      0.00%     47.82% # attempts to use FU when none available
system.switch_cpus0.iq.fu_full::SimdMult            0      0.00%     47.82% # attempts to use FU when none available
system.switch_cpus0.iq.fu_full::SimdMultAcc            0      0.00%     47.82% # attempts to use FU when none available
system.switch_cpus0.iq.fu_full::SimdShift            0      0.00%     47.82% # attempts to use FU when none available
system.switch_cpus0.iq.fu_full::SimdShiftAcc            0      0.00%     47.82% # attempts to use FU when none available
system.switch_cpus0.iq.fu_full::SimdSqrt            0      0.00%     47.82% # attempts to use FU when none available
system.switch_cpus0.iq.fu_full::SimdFloatAdd            0      0.00%     47.82% # attempts to use FU when none available
system.switch_cpus0.iq.fu_full::SimdFloatAlu            0      0.00%     47.82% # attempts to use FU when none available
system.switch_cpus0.iq.fu_full::SimdFloatCmp            0      0.00%     47.82% # attempts to use FU when none available
system.switch_cpus0.iq.fu_full::SimdFloatCvt            0      0.00%     47.82% # attempts to use FU when none available
system.switch_cpus0.iq.fu_full::SimdFloatDiv            0      0.00%     47.82% # attempts to use FU when none available
system.switch_cpus0.iq.fu_full::SimdFloatMisc            0      0.00%     47.82% # attempts to use FU when none available
system.switch_cpus0.iq.fu_full::SimdFloatMult            0      0.00%     47.82% # attempts to use FU when none available
system.switch_cpus0.iq.fu_full::SimdFloatMultAcc            0      0.00%     47.82% # attempts to use FU when none available
system.switch_cpus0.iq.fu_full::SimdFloatSqrt            0      0.00%     47.82% # attempts to use FU when none available
system.switch_cpus0.iq.fu_full::MemRead        180144     36.85%     84.67% # attempts to use FU when none available
system.switch_cpus0.iq.fu_full::MemWrite        74950     15.33%    100.00% # attempts to use FU when none available
system.switch_cpus0.iq.fu_full::IprAccess            0      0.00%    100.00% # attempts to use FU when none available
system.switch_cpus0.iq.fu_full::InstPrefetch            0      0.00%    100.00% # attempts to use FU when none available
system.switch_cpus0.iq.FU_type_0::No_OpClass            0      0.00%      0.00% # Type of FU issued
system.switch_cpus0.iq.FU_type_0::IntAlu     99861800     78.49%     78.49% # Type of FU issued
system.switch_cpus0.iq.FU_type_0::IntMult      1005794      0.79%     79.28% # Type of FU issued
system.switch_cpus0.iq.FU_type_0::IntDiv            0      0.00%     79.28% # Type of FU issued
system.switch_cpus0.iq.FU_type_0::FloatAdd            0      0.00%     79.28% # Type of FU issued
system.switch_cpus0.iq.FU_type_0::FloatCmp            0      0.00%     79.28% # Type of FU issued
system.switch_cpus0.iq.FU_type_0::FloatCvt            0      0.00%     79.28% # Type of FU issued
system.switch_cpus0.iq.FU_type_0::FloatMult            0      0.00%     79.28% # Type of FU issued
system.switch_cpus0.iq.FU_type_0::FloatDiv            0      0.00%     79.28% # Type of FU issued
system.switch_cpus0.iq.FU_type_0::FloatSqrt            0      0.00%     79.28% # Type of FU issued
system.switch_cpus0.iq.FU_type_0::SimdAdd            0      0.00%     79.28% # Type of FU issued
system.switch_cpus0.iq.FU_type_0::SimdAddAcc            0      0.00%     79.28% # Type of FU issued
system.switch_cpus0.iq.FU_type_0::SimdAlu            0      0.00%     79.28% # Type of FU issued
system.switch_cpus0.iq.FU_type_0::SimdCmp            0      0.00%     79.28% # Type of FU issued
system.switch_cpus0.iq.FU_type_0::SimdCvt            0      0.00%     79.28% # Type of FU issued
system.switch_cpus0.iq.FU_type_0::SimdMisc            0      0.00%     79.28% # Type of FU issued
system.switch_cpus0.iq.FU_type_0::SimdMult            0      0.00%     79.28% # Type of FU issued
system.switch_cpus0.iq.FU_type_0::SimdMultAcc            0      0.00%     79.28% # Type of FU issued
system.switch_cpus0.iq.FU_type_0::SimdShift            0      0.00%     79.28% # Type of FU issued
system.switch_cpus0.iq.FU_type_0::SimdShiftAcc            0      0.00%     79.28% # Type of FU issued
system.switch_cpus0.iq.FU_type_0::SimdSqrt            0      0.00%     79.28% # Type of FU issued
system.switch_cpus0.iq.FU_type_0::SimdFloatAdd            0      0.00%     79.28% # Type of FU issued
system.switch_cpus0.iq.FU_type_0::SimdFloatAlu            0      0.00%     79.28% # Type of FU issued
system.switch_cpus0.iq.FU_type_0::SimdFloatCmp            0      0.00%     79.28% # Type of FU issued
system.switch_cpus0.iq.FU_type_0::SimdFloatCvt            0      0.00%     79.28% # Type of FU issued
system.switch_cpus0.iq.FU_type_0::SimdFloatDiv            0      0.00%     79.28% # Type of FU issued
system.switch_cpus0.iq.FU_type_0::SimdFloatMisc         9220      0.01%     79.29% # Type of FU issued
system.switch_cpus0.iq.FU_type_0::SimdFloatMult            0      0.00%     79.29% # Type of FU issued
system.switch_cpus0.iq.FU_type_0::SimdFloatMultAcc            0      0.00%     79.29% # Type of FU issued
system.switch_cpus0.iq.FU_type_0::SimdFloatSqrt            0      0.00%     79.29% # Type of FU issued
system.switch_cpus0.iq.FU_type_0::MemRead     22232269     17.47%     96.76% # Type of FU issued
system.switch_cpus0.iq.FU_type_0::MemWrite      4122224      3.24%    100.00% # Type of FU issued
system.switch_cpus0.iq.FU_type_0::IprAccess            0      0.00%    100.00% # Type of FU issued
system.switch_cpus0.iq.FU_type_0::InstPrefetch            0      0.00%    100.00% # Type of FU issued
system.switch_cpus0.iq.FU_type_0::total     127231307                       # Type of FU issued
system.switch_cpus0.iq.rate                  0.450126                       # Inst issue rate
system.switch_cpus0.iq.fu_busy_cnt             488899                       # FU busy when requested
system.switch_cpus0.iq.fu_busy_rate          0.003843                       # FU busy rate (busy events/executed inst)
system.switch_cpus0.iq.int_inst_queue_reads    513195724                       # Number of integer instruction queue reads
system.switch_cpus0.iq.int_inst_queue_writes    154288494                       # Number of integer instruction queue writes
system.switch_cpus0.iq.int_inst_queue_wakeup_accesses    124279201                       # Number of integer instruction queue wakeup accesses
system.switch_cpus0.iq.fp_inst_queue_reads            0                       # Number of floating instruction queue reads
system.switch_cpus0.iq.fp_inst_queue_writes            0                       # Number of floating instruction queue writes
system.switch_cpus0.iq.fp_inst_queue_wakeup_accesses            0                       # Number of floating instruction queue wakeup accesses
system.switch_cpus0.iq.int_alu_accesses     127720206                       # Number of integer alu accesses
system.switch_cpus0.iq.fp_alu_accesses              0                       # Number of floating point alu accesses
system.switch_cpus0.iew.lsq.thread0.forwLoads       225789                       # Number of loads that had data forwarded from stores
system.switch_cpus0.iew.lsq.thread0.invAddrLoads            0                       # Number of loads ignored due to an invalid address
system.switch_cpus0.iew.lsq.thread0.squashedLoads      3909231                       # Number of loads squashed
system.switch_cpus0.iew.lsq.thread0.ignoredResponses          235                       # Number of memory responses ignored because the instruction is squashed
system.switch_cpus0.iew.lsq.thread0.memOrderViolation          292                       # Number of memory ordering violations
system.switch_cpus0.iew.lsq.thread0.squashedStores       114323                       # Number of stores squashed
system.switch_cpus0.iew.lsq.thread0.invAddrSwpfs            0                       # Number of software prefetches ignored due to an invalid address
system.switch_cpus0.iew.lsq.thread0.blockedLoads            0                       # Number of blocked loads due to partial load-store forwarding
system.switch_cpus0.iew.lsq.thread0.rescheduledLoads            0                       # Number of loads that were rescheduled
system.switch_cpus0.iew.lsq.thread0.cacheBlocked            0                       # Number of times an access to memory failed due to the cache being blocked
system.switch_cpus0.iew.iewIdleCycles               0                       # Number of cycles IEW is idle
system.switch_cpus0.iew.iewSquashCycles       3746629                       # Number of cycles IEW is squashing
system.switch_cpus0.iew.iewBlockCycles        1404826                       # Number of cycles IEW is blocking
system.switch_cpus0.iew.iewUnblockCycles        64658                       # Number of cycles IEW is unblocking
system.switch_cpus0.iew.iewDispatchedInsts    134005423                       # Number of instructions dispatched to IQ
system.switch_cpus0.iew.iewDispSquashedInsts         5951                       # Number of squashed instructions skipped by dispatch
system.switch_cpus0.iew.iewDispLoadInsts     23435040                       # Number of dispatched load instructions
system.switch_cpus0.iew.iewDispStoreInsts      4143231                       # Number of dispatched store instructions
system.switch_cpus0.iew.iewDispNonSpecInsts         9232                       # Number of dispatched non-speculative instructions
system.switch_cpus0.iew.iewIQFullEvents         37236                       # Number of times the IQ has become full, causing a stall
system.switch_cpus0.iew.iewLSQFullEvents          528                       # Number of times the LSQ has become full, causing a stall
system.switch_cpus0.iew.memOrderViolationEvents          292                       # Number of memory order violations
system.switch_cpus0.iew.predictedTakenIncorrect       820878                       # Number of branches that were predicted taken incorrectly
system.switch_cpus0.iew.predictedNotTakenIncorrect      1103031                       # Number of branches that were predicted not taken incorrectly
system.switch_cpus0.iew.branchMispredicts      1923909                       # Number of branch mispredicts detected at execute
system.switch_cpus0.iew.iewExecutedInsts    126113702                       # Number of executed instructions
system.switch_cpus0.iew.iewExecLoadInsts     21956993                       # Number of load instructions executed
system.switch_cpus0.iew.iewExecSquashedInsts      1117605                       # Number of squashed instructions skipped in execute
system.switch_cpus0.iew.exec_swp                    0                       # number of swp insts executed
system.switch_cpus0.iew.exec_nop                    1                       # number of nop insts executed
system.switch_cpus0.iew.exec_refs            26079165                       # number of memory reference insts executed
system.switch_cpus0.iew.exec_branches        19491081                       # Number of branches executed
system.switch_cpus0.iew.exec_stores           4122172                       # Number of stores executed
system.switch_cpus0.iew.exec_rate            0.446173                       # Inst execution rate
system.switch_cpus0.iew.wb_sent             124314533                       # cumulative count of insts sent to commit
system.switch_cpus0.iew.wb_count            124279201                       # cumulative count of insts written-back
system.switch_cpus0.iew.wb_producers         71081799                       # num instructions producing a value
system.switch_cpus0.iew.wb_consumers        164030347                       # num instructions consuming a value
system.switch_cpus0.iew.wb_penalized                0                       # number of instrctions required to write to 'other' IQ
system.switch_cpus0.iew.wb_rate              0.439682                       # insts written-back per cycle
system.switch_cpus0.iew.wb_fanout            0.433345                       # average fanout of values written-back
system.switch_cpus0.iew.wb_penalized_rate            0                       # fraction of instructions written-back that wrote to 'other' IQ
system.switch_cpus0.commit.commitCommittedInsts    100000007                       # The number of committed instructions
system.switch_cpus0.commit.commitCommittedOps    112649212                       # The number of committed instructions
system.switch_cpus0.commit.commitSquashedInsts     21359169                       # The number of squashed insts skipped by commit
system.switch_cpus0.commit.commitNonSpecStalls        18440                       # The number of times commit has been forced to stall to communicate backwards
system.switch_cpus0.commit.branchMispredicts      1832396                       # The number of times a branch was mispredicted
system.switch_cpus0.commit.committed_per_cycle::samples    254417148                       # Number of insts commited each cycle
system.switch_cpus0.commit.committed_per_cycle::mean     0.442774                       # Number of insts commited each cycle
system.switch_cpus0.commit.committed_per_cycle::stdev     1.292587                       # Number of insts commited each cycle
system.switch_cpus0.commit.committed_per_cycle::underflows            0      0.00%      0.00% # Number of insts commited each cycle
system.switch_cpus0.commit.committed_per_cycle::0    212199928     83.41%     83.41% # Number of insts commited each cycle
system.switch_cpus0.commit.committed_per_cycle::1     15995901      6.29%     89.69% # Number of insts commited each cycle
system.switch_cpus0.commit.committed_per_cycle::2     12512273      4.92%     94.61% # Number of insts commited each cycle
system.switch_cpus0.commit.committed_per_cycle::3      2471234      0.97%     95.58% # Number of insts commited each cycle
system.switch_cpus0.commit.committed_per_cycle::4      3114701      1.22%     96.81% # Number of insts commited each cycle
system.switch_cpus0.commit.committed_per_cycle::5      1053909      0.41%     97.22% # Number of insts commited each cycle
system.switch_cpus0.commit.committed_per_cycle::6      4529489      1.78%     99.00% # Number of insts commited each cycle
system.switch_cpus0.commit.committed_per_cycle::7      1007924      0.40%     99.40% # Number of insts commited each cycle
system.switch_cpus0.commit.committed_per_cycle::8      1531789      0.60%    100.00% # Number of insts commited each cycle
system.switch_cpus0.commit.committed_per_cycle::overflows            0      0.00%    100.00% # Number of insts commited each cycle
system.switch_cpus0.commit.committed_per_cycle::min_value            0                       # Number of insts commited each cycle
system.switch_cpus0.commit.committed_per_cycle::max_value            8                       # Number of insts commited each cycle
system.switch_cpus0.commit.committed_per_cycle::total    254417148                       # Number of insts commited each cycle
system.switch_cpus0.commit.committedInsts    100000007                       # Number of instructions committed
system.switch_cpus0.commit.committedOps     112649212                       # Number of ops (including micro ops) committed
system.switch_cpus0.commit.swp_count                0                       # Number of s/w prefetches committed
system.switch_cpus0.commit.refs              23554717                       # Number of memory references committed
system.switch_cpus0.commit.loads             19525809                       # Number of loads committed
system.switch_cpus0.commit.membars               9220                       # Number of memory barriers committed
system.switch_cpus0.commit.branches          17774062                       # Number of branches committed
system.switch_cpus0.commit.fp_insts                 0                       # Number of committed floating point instructions.
system.switch_cpus0.commit.int_insts         97983637                       # Number of committed integer instructions.
system.switch_cpus0.commit.function_calls      1421934                       # Number of function calls committed.
system.switch_cpus0.commit.bw_lim_events      1531789                       # number cycles where commit BW limit reached
system.switch_cpus0.commit.bw_limited               0                       # number of insts not committed due to BW limits
system.switch_cpus0.rob.rob_reads           386893740                       # The number of ROB reads
system.switch_cpus0.rob.rob_writes          271763464                       # The number of ROB writes
system.switch_cpus0.timesIdled                6037241                       # Number of times that the entire CPU went into an idle state and unscheduled itself
system.switch_cpus0.idleCycles               24493003                       # Total number of cycles that the CPU has spent unscheduled due to idling
system.switch_cpus0.committedInsts          100000007                       # Number of Instructions Simulated
system.switch_cpus0.committedOps            112649212                       # Number of Ops (including micro ops) Simulated
system.switch_cpus0.committedInsts_total    100000007                       # Number of Instructions Simulated
system.switch_cpus0.cpi                      2.826568                       # CPI: Cycles Per Instruction
system.switch_cpus0.cpi_total                2.826568                       # CPI: Total CPI of All Threads
system.switch_cpus0.ipc                      0.353786                       # IPC: Instructions Per Cycle
system.switch_cpus0.ipc_total                0.353786                       # IPC: Total IPC of All Threads
system.switch_cpus0.int_regfile_reads       584002275                       # number of integer regfile reads
system.switch_cpus0.int_regfile_writes      162085761                       # number of integer regfile writes
system.switch_cpus0.misc_regfile_reads      142404228                       # number of misc regfile reads
system.switch_cpus0.misc_regfile_writes         18440                       # number of misc regfile writes
system.switch_cpus1.dtb.inst_hits                   0                       # ITB inst hits
system.switch_cpus1.dtb.inst_misses                 0                       # ITB inst misses
system.switch_cpus1.dtb.read_hits                   0                       # DTB read hits
system.switch_cpus1.dtb.read_misses                 0                       # DTB read misses
system.switch_cpus1.dtb.write_hits                  0                       # DTB write hits
system.switch_cpus1.dtb.write_misses                0                       # DTB write misses
system.switch_cpus1.dtb.flush_tlb                   0                       # Number of times complete TLB was flushed
system.switch_cpus1.dtb.flush_tlb_mva               0                       # Number of times TLB was flushed by MVA
system.switch_cpus1.dtb.flush_tlb_mva_asid            0                       # Number of times TLB was flushed by MVA & ASID
system.switch_cpus1.dtb.flush_tlb_asid              0                       # Number of times TLB was flushed by ASID
system.switch_cpus1.dtb.flush_entries               0                       # Number of entries that have been flushed from TLB
system.switch_cpus1.dtb.align_faults                0                       # Number of TLB faults due to alignment restrictions
system.switch_cpus1.dtb.prefetch_faults             0                       # Number of TLB faults due to prefetch
system.switch_cpus1.dtb.domain_faults               0                       # Number of TLB faults due to domain restrictions
system.switch_cpus1.dtb.perms_faults                0                       # Number of TLB faults due to permissions restrictions
system.switch_cpus1.dtb.read_accesses               0                       # DTB read accesses
system.switch_cpus1.dtb.write_accesses              0                       # DTB write accesses
system.switch_cpus1.dtb.inst_accesses               0                       # ITB inst accesses
system.switch_cpus1.dtb.hits                        0                       # DTB hits
system.switch_cpus1.dtb.misses                      0                       # DTB misses
system.switch_cpus1.dtb.accesses                    0                       # DTB accesses
system.switch_cpus1.itb.inst_hits                   0                       # ITB inst hits
system.switch_cpus1.itb.inst_misses                 0                       # ITB inst misses
system.switch_cpus1.itb.read_hits                   0                       # DTB read hits
system.switch_cpus1.itb.read_misses                 0                       # DTB read misses
system.switch_cpus1.itb.write_hits                  0                       # DTB write hits
system.switch_cpus1.itb.write_misses                0                       # DTB write misses
system.switch_cpus1.itb.flush_tlb                   0                       # Number of times complete TLB was flushed
system.switch_cpus1.itb.flush_tlb_mva               0                       # Number of times TLB was flushed by MVA
system.switch_cpus1.itb.flush_tlb_mva_asid            0                       # Number of times TLB was flushed by MVA & ASID
system.switch_cpus1.itb.flush_tlb_asid              0                       # Number of times TLB was flushed by ASID
system.switch_cpus1.itb.flush_entries               0                       # Number of entries that have been flushed from TLB
system.switch_cpus1.itb.align_faults                0                       # Number of TLB faults due to alignment restrictions
system.switch_cpus1.itb.prefetch_faults             0                       # Number of TLB faults due to prefetch
system.switch_cpus1.itb.domain_faults               0                       # Number of TLB faults due to domain restrictions
system.switch_cpus1.itb.perms_faults                0                       # Number of TLB faults due to permissions restrictions
system.switch_cpus1.itb.read_accesses               0                       # DTB read accesses
system.switch_cpus1.itb.write_accesses              0                       # DTB write accesses
system.switch_cpus1.itb.inst_accesses               0                       # ITB inst accesses
system.switch_cpus1.itb.hits                        0                       # DTB hits
system.switch_cpus1.itb.misses                      0                       # DTB misses
system.switch_cpus1.itb.accesses                    0                       # DTB accesses
system.cpu1.workload.num_syscalls                   0                       # Number of system calls
system.switch_cpus1.numCycles               282656780                       # number of cpu cycles simulated
system.switch_cpus1.numWorkItemsStarted             0                       # number of work items this cpu started
system.switch_cpus1.numWorkItemsCompleted            0                       # number of work items this cpu completed
system.switch_cpus1.BPredUnit.lookups        23145031                       # Number of BP lookups
system.switch_cpus1.BPredUnit.condPredicted     18918867                       # Number of conditional branches predicted
system.switch_cpus1.BPredUnit.condIncorrect      2250155                       # Number of conditional branches incorrect
system.switch_cpus1.BPredUnit.BTBLookups      9523599                       # Number of BTB lookups
system.switch_cpus1.BPredUnit.BTBHits         9089568                       # Number of BTB hits
system.switch_cpus1.BPredUnit.BTBCorrect            0                       # Number of correct BTB predictions (this stat may not work properly.
system.switch_cpus1.BPredUnit.usedRAS         2374794                       # Number of times the RAS was used to get a target.
system.switch_cpus1.BPredUnit.RASInCorrect       102386                       # Number of incorrect RAS predictions.
system.switch_cpus1.fetch.icacheStallCycles    222886543                       # Number of cycles fetch is stalled on an Icache miss
system.switch_cpus1.fetch.Insts             130028341                       # Number of instructions fetch has processed
system.switch_cpus1.fetch.Branches           23145031                       # Number of branches that fetch encountered
system.switch_cpus1.fetch.predictedBranches     11464362                       # Number of branches that fetch has predicted taken
system.switch_cpus1.fetch.Cycles             27090875                       # Number of cycles fetch has run and was not squashing or blocked
system.switch_cpus1.fetch.SquashCycles        6242338                       # Number of cycles fetch has spent squashing
system.switch_cpus1.fetch.BlockedCycles       5642907                       # Number of cycles fetch has spent blocked
system.switch_cpus1.fetch.PendingTrapStallCycles            6                       # Number of stall cycles due to pending traps
system.switch_cpus1.fetch.CacheLines         13650723                       # Number of cache lines fetched
system.switch_cpus1.fetch.IcacheSquashes      2252111                       # Number of outstanding Icache misses that were squashed
system.switch_cpus1.fetch.rateDist::samples    259574430                       # Number of instructions fetched each cycle (Total)
system.switch_cpus1.fetch.rateDist::mean     0.614265                       # Number of instructions fetched each cycle (Total)
system.switch_cpus1.fetch.rateDist::stdev     1.957956                       # Number of instructions fetched each cycle (Total)
system.switch_cpus1.fetch.rateDist::underflows            0      0.00%      0.00% # Number of instructions fetched each cycle (Total)
system.switch_cpus1.fetch.rateDist::0       232483555     89.56%     89.56% # Number of instructions fetched each cycle (Total)
system.switch_cpus1.fetch.rateDist::1         1302041      0.50%     90.06% # Number of instructions fetched each cycle (Total)
system.switch_cpus1.fetch.rateDist::2         1983775      0.76%     90.83% # Number of instructions fetched each cycle (Total)
system.switch_cpus1.fetch.rateDist::3         2710615      1.04%     91.87% # Number of instructions fetched each cycle (Total)
system.switch_cpus1.fetch.rateDist::4         2782012      1.07%     92.95% # Number of instructions fetched each cycle (Total)
system.switch_cpus1.fetch.rateDist::5         2330003      0.90%     93.84% # Number of instructions fetched each cycle (Total)
system.switch_cpus1.fetch.rateDist::6         1323908      0.51%     94.35% # Number of instructions fetched each cycle (Total)
system.switch_cpus1.fetch.rateDist::7         1943741      0.75%     95.10% # Number of instructions fetched each cycle (Total)
system.switch_cpus1.fetch.rateDist::8        12714780      4.90%    100.00% # Number of instructions fetched each cycle (Total)
system.switch_cpus1.fetch.rateDist::overflows            0      0.00%    100.00% # Number of instructions fetched each cycle (Total)
system.switch_cpus1.fetch.rateDist::min_value            0                       # Number of instructions fetched each cycle (Total)
system.switch_cpus1.fetch.rateDist::max_value            8                       # Number of instructions fetched each cycle (Total)
system.switch_cpus1.fetch.rateDist::total    259574430                       # Number of instructions fetched each cycle (Total)
system.switch_cpus1.fetch.branchRate         0.081884                       # Number of branch fetches per cycle
system.switch_cpus1.fetch.rate               0.460022                       # Number of inst fetches per cycle
system.switch_cpus1.decode.IdleCycles       220337428                       # Number of cycles decode is idle
system.switch_cpus1.decode.BlockedCycles      8212800                       # Number of cycles decode is blocked
system.switch_cpus1.decode.RunCycles         27019138                       # Number of cycles decode is running
system.switch_cpus1.decode.UnblockCycles        51199                       # Number of cycles decode is unblocking
system.switch_cpus1.decode.SquashCycles       3953862                       # Number of cycles decode is squashing
system.switch_cpus1.decode.BranchResolved      3823346                       # Number of times decode resolved a branch
system.switch_cpus1.decode.BranchMispred          237                       # Number of times decode detected a branch misprediction
system.switch_cpus1.decode.DecodedInsts     159317488                       # Number of instructions handled by decode
system.switch_cpus1.decode.SquashedInsts         1319                       # Number of squashed instructions handled by decode
system.switch_cpus1.rename.SquashCycles       3953862                       # Number of cycles rename is squashing
system.switch_cpus1.rename.IdleCycles       220960311                       # Number of cycles rename is idle
system.switch_cpus1.rename.BlockCycles        1476495                       # Number of cycles rename is blocking
system.switch_cpus1.rename.serializeStallCycles      5165007                       # count of cycles rename stalled for serializing inst
system.switch_cpus1.rename.RunCycles         26458026                       # Number of cycles rename is running
system.switch_cpus1.rename.UnblockCycles      1560726                       # Number of cycles rename is unblocking
system.switch_cpus1.rename.RenamedInsts     159216577                       # Number of instructions processed by rename
system.switch_cpus1.rename.ROBFullEvents         1195                       # Number of times rename has blocked due to ROB full
system.switch_cpus1.rename.IQFullEvents        352821                       # Number of times rename has blocked due to IQ full
system.switch_cpus1.rename.LSQFullEvents       623463                       # Number of times rename has blocked due to LSQ full
system.switch_cpus1.rename.FullRegisterEvents          983                       # Number of times there has been no free registers
system.switch_cpus1.rename.RenamedOperands    221241107                       # Number of destination operands rename has renamed
system.switch_cpus1.rename.RenameLookups    741032793                       # Number of register rename lookups that rename has made
system.switch_cpus1.rename.int_rename_lookups    741032793                       # Number of integer rename lookups
system.switch_cpus1.rename.CommittedMaps    191313818                       # Number of HB maps that are committed
system.switch_cpus1.rename.UndoneMaps        29927289                       # Number of HB maps that are undone due to squashing
system.switch_cpus1.rename.serializingInsts        44208                       # count of serializing insts renamed
system.switch_cpus1.rename.tempSerializingInsts        25532                       # count of temporary serializing insts renamed
system.switch_cpus1.rename.skidInsts          4527631                       # count of insts added to the skid buffer
system.switch_cpus1.memDep0.insertedLoads     15117944                       # Number of loads inserted to the mem dependence unit.
system.switch_cpus1.memDep0.insertedStores      8294549                       # Number of stores inserted to the mem dependence unit.
system.switch_cpus1.memDep0.conflictingLoads       146584                       # Number of conflicting loads.
system.switch_cpus1.memDep0.conflictingStores      1807431                       # Number of conflicting stores.
system.switch_cpus1.iq.iqInstsAdded         159000630                       # Number of instructions added to the IQ (excludes non-spec)
system.switch_cpus1.iq.iqNonSpecInstsAdded        44180                       # Number of non-speculative instructions added to the IQ
system.switch_cpus1.iq.iqInstsIssued        150829888                       # Number of instructions issued
system.switch_cpus1.iq.iqSquashedInstsIssued        29886                       # Number of squashed instructions issued
system.switch_cpus1.iq.iqSquashedInstsExamined     18051815                       # Number of squashed instructions iterated over during squash; mainly for profiling
system.switch_cpus1.iq.iqSquashedOperandsExamined     42874594                       # Number of squashed operands that are examined and possibly removed from graph
system.switch_cpus1.iq.iqSquashedNonSpecRemoved         6828                       # Number of squashed non-spec instructions that were removed
system.switch_cpus1.iq.issued_per_cycle::samples    259574430                       # Number of insts issued each cycle
system.switch_cpus1.iq.issued_per_cycle::mean     0.581066                       # Number of insts issued each cycle
system.switch_cpus1.iq.issued_per_cycle::stdev     1.270322                       # Number of insts issued each cycle
system.switch_cpus1.iq.issued_per_cycle::underflows            0      0.00%      0.00% # Number of insts issued each cycle
system.switch_cpus1.iq.issued_per_cycle::0    195791500     75.43%     75.43% # Number of insts issued each cycle
system.switch_cpus1.iq.issued_per_cycle::1     26010338     10.02%     85.45% # Number of insts issued each cycle
system.switch_cpus1.iq.issued_per_cycle::2     13445088      5.18%     90.63% # Number of insts issued each cycle
system.switch_cpus1.iq.issued_per_cycle::3     10128448      3.90%     94.53% # Number of insts issued each cycle
system.switch_cpus1.iq.issued_per_cycle::4      7879447      3.04%     97.57% # Number of insts issued each cycle
system.switch_cpus1.iq.issued_per_cycle::5      3165444      1.22%     98.78% # Number of insts issued each cycle
system.switch_cpus1.iq.issued_per_cycle::6      2007922      0.77%     99.56% # Number of insts issued each cycle
system.switch_cpus1.iq.issued_per_cycle::7      1018454      0.39%     99.95% # Number of insts issued each cycle
system.switch_cpus1.iq.issued_per_cycle::8       127789      0.05%    100.00% # Number of insts issued each cycle
system.switch_cpus1.iq.issued_per_cycle::overflows            0      0.00%    100.00% # Number of insts issued each cycle
system.switch_cpus1.iq.issued_per_cycle::min_value            0                       # Number of insts issued each cycle
system.switch_cpus1.iq.issued_per_cycle::max_value            8                       # Number of insts issued each cycle
system.switch_cpus1.iq.issued_per_cycle::total    259574430                       # Number of insts issued each cycle
system.switch_cpus1.iq.fu_full::No_OpClass            0      0.00%      0.00% # attempts to use FU when none available
system.switch_cpus1.iq.fu_full::IntAlu          26761     10.04%     10.04% # attempts to use FU when none available
system.switch_cpus1.iq.fu_full::IntMult             0      0.00%     10.04% # attempts to use FU when none available
system.switch_cpus1.iq.fu_full::IntDiv              0      0.00%     10.04% # attempts to use FU when none available
system.switch_cpus1.iq.fu_full::FloatAdd            0      0.00%     10.04% # attempts to use FU when none available
system.switch_cpus1.iq.fu_full::FloatCmp            0      0.00%     10.04% # attempts to use FU when none available
system.switch_cpus1.iq.fu_full::FloatCvt            0      0.00%     10.04% # attempts to use FU when none available
system.switch_cpus1.iq.fu_full::FloatMult            0      0.00%     10.04% # attempts to use FU when none available
system.switch_cpus1.iq.fu_full::FloatDiv            0      0.00%     10.04% # attempts to use FU when none available
system.switch_cpus1.iq.fu_full::FloatSqrt            0      0.00%     10.04% # attempts to use FU when none available
system.switch_cpus1.iq.fu_full::SimdAdd             0      0.00%     10.04% # attempts to use FU when none available
system.switch_cpus1.iq.fu_full::SimdAddAcc            0      0.00%     10.04% # attempts to use FU when none available
system.switch_cpus1.iq.fu_full::SimdAlu             0      0.00%     10.04% # attempts to use FU when none available
system.switch_cpus1.iq.fu_full::SimdCmp             0      0.00%     10.04% # attempts to use FU when none available
system.switch_cpus1.iq.fu_full::SimdCvt             0      0.00%     10.04% # attempts to use FU when none available
system.switch_cpus1.iq.fu_full::SimdMisc            0      0.00%     10.04% # attempts to use FU when none available
system.switch_cpus1.iq.fu_full::SimdMult            0      0.00%     10.04% # attempts to use FU when none available
system.switch_cpus1.iq.fu_full::SimdMultAcc            0      0.00%     10.04% # attempts to use FU when none available
system.switch_cpus1.iq.fu_full::SimdShift            0      0.00%     10.04% # attempts to use FU when none available
system.switch_cpus1.iq.fu_full::SimdShiftAcc            0      0.00%     10.04% # attempts to use FU when none available
system.switch_cpus1.iq.fu_full::SimdSqrt            0      0.00%     10.04% # attempts to use FU when none available
system.switch_cpus1.iq.fu_full::SimdFloatAdd            0      0.00%     10.04% # attempts to use FU when none available
system.switch_cpus1.iq.fu_full::SimdFloatAlu            0      0.00%     10.04% # attempts to use FU when none available
system.switch_cpus1.iq.fu_full::SimdFloatCmp            0      0.00%     10.04% # attempts to use FU when none available
system.switch_cpus1.iq.fu_full::SimdFloatCvt            0      0.00%     10.04% # attempts to use FU when none available
system.switch_cpus1.iq.fu_full::SimdFloatDiv            0      0.00%     10.04% # attempts to use FU when none available
system.switch_cpus1.iq.fu_full::SimdFloatMisc            0      0.00%     10.04% # attempts to use FU when none available
system.switch_cpus1.iq.fu_full::SimdFloatMult            0      0.00%     10.04% # attempts to use FU when none available
system.switch_cpus1.iq.fu_full::SimdFloatMultAcc            0      0.00%     10.04% # attempts to use FU when none available
system.switch_cpus1.iq.fu_full::SimdFloatSqrt            0      0.00%     10.04% # attempts to use FU when none available
system.switch_cpus1.iq.fu_full::MemRead         98014     36.78%     46.82% # attempts to use FU when none available
system.switch_cpus1.iq.fu_full::MemWrite       141714     53.18%    100.00% # attempts to use FU when none available
system.switch_cpus1.iq.fu_full::IprAccess            0      0.00%    100.00% # attempts to use FU when none available
system.switch_cpus1.iq.fu_full::InstPrefetch            0      0.00%    100.00% # attempts to use FU when none available
system.switch_cpus1.iq.FU_type_0::No_OpClass            0      0.00%      0.00% # Type of FU issued
system.switch_cpus1.iq.FU_type_0::IntAlu    126357022     83.77%     83.77% # Type of FU issued
system.switch_cpus1.iq.FU_type_0::IntMult      2339402      1.55%     85.33% # Type of FU issued
system.switch_cpus1.iq.FU_type_0::IntDiv            0      0.00%     85.33% # Type of FU issued
system.switch_cpus1.iq.FU_type_0::FloatAdd            0      0.00%     85.33% # Type of FU issued
system.switch_cpus1.iq.FU_type_0::FloatCmp            0      0.00%     85.33% # Type of FU issued
system.switch_cpus1.iq.FU_type_0::FloatCvt            0      0.00%     85.33% # Type of FU issued
system.switch_cpus1.iq.FU_type_0::FloatMult            0      0.00%     85.33% # Type of FU issued
system.switch_cpus1.iq.FU_type_0::FloatDiv            0      0.00%     85.33% # Type of FU issued
system.switch_cpus1.iq.FU_type_0::FloatSqrt            0      0.00%     85.33% # Type of FU issued
system.switch_cpus1.iq.FU_type_0::SimdAdd            0      0.00%     85.33% # Type of FU issued
system.switch_cpus1.iq.FU_type_0::SimdAddAcc            0      0.00%     85.33% # Type of FU issued
system.switch_cpus1.iq.FU_type_0::SimdAlu            0      0.00%     85.33% # Type of FU issued
system.switch_cpus1.iq.FU_type_0::SimdCmp            0      0.00%     85.33% # Type of FU issued
system.switch_cpus1.iq.FU_type_0::SimdCvt            0      0.00%     85.33% # Type of FU issued
system.switch_cpus1.iq.FU_type_0::SimdMisc            0      0.00%     85.33% # Type of FU issued
system.switch_cpus1.iq.FU_type_0::SimdMult            0      0.00%     85.33% # Type of FU issued
system.switch_cpus1.iq.FU_type_0::SimdMultAcc            0      0.00%     85.33% # Type of FU issued
system.switch_cpus1.iq.FU_type_0::SimdShift            0      0.00%     85.33% # Type of FU issued
system.switch_cpus1.iq.FU_type_0::SimdShiftAcc            0      0.00%     85.33% # Type of FU issued
system.switch_cpus1.iq.FU_type_0::SimdSqrt            0      0.00%     85.33% # Type of FU issued
system.switch_cpus1.iq.FU_type_0::SimdFloatAdd            0      0.00%     85.33% # Type of FU issued
system.switch_cpus1.iq.FU_type_0::SimdFloatAlu            0      0.00%     85.33% # Type of FU issued
system.switch_cpus1.iq.FU_type_0::SimdFloatCmp            0      0.00%     85.33% # Type of FU issued
system.switch_cpus1.iq.FU_type_0::SimdFloatCvt            0      0.00%     85.33% # Type of FU issued
system.switch_cpus1.iq.FU_type_0::SimdFloatDiv            0      0.00%     85.33% # Type of FU issued
system.switch_cpus1.iq.FU_type_0::SimdFloatMisc        18676      0.01%     85.34% # Type of FU issued
system.switch_cpus1.iq.FU_type_0::SimdFloatMult            0      0.00%     85.34% # Type of FU issued
system.switch_cpus1.iq.FU_type_0::SimdFloatMultAcc            0      0.00%     85.34% # Type of FU issued
system.switch_cpus1.iq.FU_type_0::SimdFloatSqrt            0      0.00%     85.34% # Type of FU issued
system.switch_cpus1.iq.FU_type_0::MemRead     13882409      9.20%     94.54% # Type of FU issued
system.switch_cpus1.iq.FU_type_0::MemWrite      8232379      5.46%    100.00% # Type of FU issued
system.switch_cpus1.iq.FU_type_0::IprAccess            0      0.00%    100.00% # Type of FU issued
system.switch_cpus1.iq.FU_type_0::InstPrefetch            0      0.00%    100.00% # Type of FU issued
system.switch_cpus1.iq.FU_type_0::total     150829888                       # Type of FU issued
system.switch_cpus1.iq.rate                  0.533615                       # Inst issue rate
system.switch_cpus1.iq.fu_busy_cnt             266489                       # FU busy when requested
system.switch_cpus1.iq.fu_busy_rate          0.001767                       # FU busy rate (busy events/executed inst)
system.switch_cpus1.iq.int_inst_queue_reads    561530581                       # Number of integer instruction queue reads
system.switch_cpus1.iq.int_inst_queue_writes    177097018                       # Number of integer instruction queue writes
system.switch_cpus1.iq.int_inst_queue_wakeup_accesses    148572872                       # Number of integer instruction queue wakeup accesses
system.switch_cpus1.iq.fp_inst_queue_reads            0                       # Number of floating instruction queue reads
system.switch_cpus1.iq.fp_inst_queue_writes            0                       # Number of floating instruction queue writes
system.switch_cpus1.iq.fp_inst_queue_wakeup_accesses            0                       # Number of floating instruction queue wakeup accesses
system.switch_cpus1.iq.int_alu_accesses     151096377                       # Number of integer alu accesses
system.switch_cpus1.iq.fp_alu_accesses              0                       # Number of floating point alu accesses
system.switch_cpus1.iew.lsq.thread0.forwLoads       352434                       # Number of loads that had data forwarded from stores
system.switch_cpus1.iew.lsq.thread0.invAddrLoads            0                       # Number of loads ignored due to an invalid address
system.switch_cpus1.iew.lsq.thread0.squashedLoads      2493360                       # Number of loads squashed
system.switch_cpus1.iew.lsq.thread0.ignoredResponses           37                       # Number of memory responses ignored because the instruction is squashed
system.switch_cpus1.iew.lsq.thread0.memOrderViolation          393                       # Number of memory ordering violations
system.switch_cpus1.iew.lsq.thread0.squashedStores       203294                       # Number of stores squashed
system.switch_cpus1.iew.lsq.thread0.invAddrSwpfs            0                       # Number of software prefetches ignored due to an invalid address
system.switch_cpus1.iew.lsq.thread0.blockedLoads            0                       # Number of blocked loads due to partial load-store forwarding
system.switch_cpus1.iew.lsq.thread0.rescheduledLoads            0                       # Number of loads that were rescheduled
system.switch_cpus1.iew.lsq.thread0.cacheBlocked          154                       # Number of times an access to memory failed due to the cache being blocked
system.switch_cpus1.iew.iewIdleCycles               0                       # Number of cycles IEW is idle
system.switch_cpus1.iew.iewSquashCycles       3953862                       # Number of cycles IEW is squashing
system.switch_cpus1.iew.iewBlockCycles        1160354                       # Number of cycles IEW is blocking
system.switch_cpus1.iew.iewUnblockCycles       141556                       # Number of cycles IEW is unblocking
system.switch_cpus1.iew.iewDispatchedInsts    159044811                       # Number of instructions dispatched to IQ
system.switch_cpus1.iew.iewDispSquashedInsts        72934                       # Number of squashed instructions skipped by dispatch
system.switch_cpus1.iew.iewDispLoadInsts     15117944                       # Number of dispatched load instructions
system.switch_cpus1.iew.iewDispStoreInsts      8294549                       # Number of dispatched store instructions
system.switch_cpus1.iew.iewDispNonSpecInsts        25504                       # Number of dispatched non-speculative instructions
system.switch_cpus1.iew.iewIQFullEvents        104525                       # Number of times the IQ has become full, causing a stall
system.switch_cpus1.iew.iewLSQFullEvents            0                       # Number of times the LSQ has become full, causing a stall
system.switch_cpus1.iew.memOrderViolationEvents          393                       # Number of memory order violations
system.switch_cpus1.iew.predictedTakenIncorrect      1311451                       # Number of branches that were predicted taken incorrectly
system.switch_cpus1.iew.predictedNotTakenIncorrect      1277522                       # Number of branches that were predicted not taken incorrectly
system.switch_cpus1.iew.branchMispredicts      2588973                       # Number of branch mispredicts detected at execute
system.switch_cpus1.iew.iewExecutedInsts    148788205                       # Number of executed instructions
system.switch_cpus1.iew.iewExecLoadInsts     13090575                       # Number of load instructions executed
system.switch_cpus1.iew.iewExecSquashedInsts      2041683                       # Number of squashed instructions skipped in execute
system.switch_cpus1.iew.exec_swp                    0                       # number of swp insts executed
system.switch_cpus1.iew.exec_nop                    1                       # number of nop insts executed
system.switch_cpus1.iew.exec_refs            21320752                       # number of memory reference insts executed
system.switch_cpus1.iew.exec_branches        21032016                       # Number of branches executed
system.switch_cpus1.iew.exec_stores           8230177                       # Number of stores executed
system.switch_cpus1.iew.exec_rate            0.526392                       # Inst execution rate
system.switch_cpus1.iew.wb_sent             148572968                       # cumulative count of insts sent to commit
system.switch_cpus1.iew.wb_count            148572872                       # cumulative count of insts written-back
system.switch_cpus1.iew.wb_producers         85517671                       # num instructions producing a value
system.switch_cpus1.iew.wb_consumers        229075961                       # num instructions consuming a value
system.switch_cpus1.iew.wb_penalized                0                       # number of instrctions required to write to 'other' IQ
system.switch_cpus1.iew.wb_rate              0.525630                       # insts written-back per cycle
system.switch_cpus1.iew.wb_fanout            0.373316                       # average fanout of values written-back
system.switch_cpus1.iew.wb_penalized_rate            0                       # fraction of instructions written-back that wrote to 'other' IQ
system.switch_cpus1.commit.commitCommittedInsts    112045301                       # The number of committed instructions
system.switch_cpus1.commit.commitCommittedOps    137707562                       # The number of committed instructions
system.switch_cpus1.commit.commitSquashedInsts     21345831                       # The number of squashed insts skipped by commit
system.switch_cpus1.commit.commitNonSpecStalls        37352                       # The number of times commit has been forced to stall to communicate backwards
system.switch_cpus1.commit.branchMispredicts      2287514                       # The number of times a branch was mispredicted
system.switch_cpus1.commit.committed_per_cycle::samples    255620568                       # Number of insts commited each cycle
system.switch_cpus1.commit.committed_per_cycle::mean     0.538719                       # Number of insts commited each cycle
system.switch_cpus1.commit.committed_per_cycle::stdev     1.388496                       # Number of insts commited each cycle
system.switch_cpus1.commit.committed_per_cycle::underflows            0      0.00%      0.00% # Number of insts commited each cycle
system.switch_cpus1.commit.committed_per_cycle::0    199320370     77.98%     77.98% # Number of insts commited each cycle
system.switch_cpus1.commit.committed_per_cycle::1     27760741     10.86%     88.84% # Number of insts commited each cycle
system.switch_cpus1.commit.committed_per_cycle::2     10548863      4.13%     92.96% # Number of insts commited each cycle
system.switch_cpus1.commit.committed_per_cycle::3      5093167      1.99%     94.95% # Number of insts commited each cycle
system.switch_cpus1.commit.committed_per_cycle::4      4212061      1.65%     96.60% # Number of insts commited each cycle
system.switch_cpus1.commit.committed_per_cycle::5      2519380      0.99%     97.59% # Number of insts commited each cycle
system.switch_cpus1.commit.committed_per_cycle::6      2129131      0.83%     98.42% # Number of insts commited each cycle
system.switch_cpus1.commit.committed_per_cycle::7       945176      0.37%     98.79% # Number of insts commited each cycle
system.switch_cpus1.commit.committed_per_cycle::8      3091679      1.21%    100.00% # Number of insts commited each cycle
system.switch_cpus1.commit.committed_per_cycle::overflows            0      0.00%    100.00% # Number of insts commited each cycle
system.switch_cpus1.commit.committed_per_cycle::min_value            0                       # Number of insts commited each cycle
system.switch_cpus1.commit.committed_per_cycle::max_value            8                       # Number of insts commited each cycle
system.switch_cpus1.commit.committed_per_cycle::total    255620568                       # Number of insts commited each cycle
system.switch_cpus1.commit.committedInsts    112045301                       # Number of instructions committed
system.switch_cpus1.commit.committedOps     137707562                       # Number of ops (including micro ops) committed
[...]
system.cpu2.icache.ReadReq_miss_latency::total      3876102                       # number of ReadReq miss cycles
system.cpu2.icache.demand_miss_latency::switch_cpus2.inst      3876102                       # number of demand (read+write) miss cycles
system.cpu2.icache.demand_miss_latency::total      3876102                       # number of demand (read+write) miss cycles
system.cpu2.icache.overall_miss_latency::switch_cpus2.inst      3876102                       # number of overall miss cycles
system.cpu2.icache.overall_miss_latency::total      3876102                       # number of overall miss cycles
system.cpu2.icache.ReadReq_accesses::switch_cpus2.inst     13534724                       # number of ReadReq accesses(hits+misses)
system.cpu2.icache.ReadReq_accesses::total     13534724                       # number of ReadReq accesses(hits+misses)
system.cpu2.icache.demand_accesses::switch_cpus2.inst     13534724                       # number of demand (read+write) accesses
system.cpu2.icache.demand_accesses::total     13534724                       # number of demand (read+write) accesses
system.cpu2.icache.overall_accesses::switch_cpus2.inst     13534724                       # number of overall (read+write) accesses
system.cpu2.icache.overall_accesses::total     13534724                       # number of overall (read+write) accesses
system.cpu2.icache.ReadReq_miss_rate::switch_cpus2.inst     0.000001                       # miss rate for ReadReq accesses
system.cpu2.icache.ReadReq_miss_rate::total     0.000001                       # miss rate for ReadReq accesses
system.cpu2.icache.demand_miss_rate::switch_cpus2.inst     0.000001                       # miss rate for demand accesses
system.cpu2.icache.demand_miss_rate::total     0.000001                       # miss rate for demand accesses
system.cpu2.icache.overall_miss_rate::switch_cpus2.inst     0.000001                       # miss rate for overall accesses
system.cpu2.icache.overall_miss_rate::total     0.000001                       # miss rate for overall accesses
system.cpu2.icache.ReadReq_avg_miss_latency::switch_cpus2.inst 258406.800000                       # average ReadReq miss latency
system.cpu2.icache.ReadReq_avg_miss_latency::total 258406.800000                       # average ReadReq miss latency
system.cpu2.icache.demand_avg_miss_latency::switch_cpus2.inst 258406.800000                       # average overall miss latency
system.cpu2.icache.demand_avg_miss_latency::total 258406.800000                       # average overall miss latency
system.cpu2.icache.overall_avg_miss_latency::switch_cpus2.inst 258406.800000                       # average overall miss latency
system.cpu2.icache.overall_avg_miss_latency::total 258406.800000                       # average overall miss latency
system.cpu2.icache.blocked_cycles::no_mshrs            0                       # number of cycles access was blocked
system.cpu2.icache.blocked_cycles::no_targets            0                       # number of cycles access was blocked
system.cpu2.icache.blocked::no_mshrs                0                       # number of cycles access was blocked
system.cpu2.icache.blocked::no_targets              0                       # number of cycles access was blocked
system.cpu2.icache.avg_blocked_cycles::no_mshrs          nan                       # average number of cycles each access was blocked
system.cpu2.icache.avg_blocked_cycles::no_targets          nan                       # average number of cycles each access was blocked
system.cpu2.icache.fast_writes                      0                       # number of fast writes performed
system.cpu2.icache.cache_copies                     0                       # number of cache copies performed
system.cpu2.icache.ReadReq_mshr_hits::switch_cpus2.inst            2                       # number of ReadReq MSHR hits
system.cpu2.icache.ReadReq_mshr_hits::total            2                       # number of ReadReq MSHR hits
system.cpu2.icache.demand_mshr_hits::switch_cpus2.inst            2                       # number of demand (read+write) MSHR hits
system.cpu2.icache.demand_mshr_hits::total            2                       # number of demand (read+write) MSHR hits
system.cpu2.icache.overall_mshr_hits::switch_cpus2.inst            2                       # number of overall MSHR hits
system.cpu2.icache.overall_mshr_hits::total            2                       # number of overall MSHR hits
system.cpu2.icache.ReadReq_mshr_misses::switch_cpus2.inst           13                       # number of ReadReq MSHR misses
system.cpu2.icache.ReadReq_mshr_misses::total           13                       # number of ReadReq MSHR misses
system.cpu2.icache.demand_mshr_misses::switch_cpus2.inst           13                       # number of demand (read+write) MSHR misses
system.cpu2.icache.demand_mshr_misses::total           13                       # number of demand (read+write) MSHR misses
system.cpu2.icache.overall_mshr_misses::switch_cpus2.inst           13                       # number of overall MSHR misses
system.cpu2.icache.overall_mshr_misses::total           13                       # number of overall MSHR misses
system.cpu2.icache.ReadReq_mshr_miss_latency::switch_cpus2.inst      3202915                       # number of ReadReq MSHR miss cycles
system.cpu2.icache.ReadReq_mshr_miss_latency::total      3202915                       # number of ReadReq MSHR miss cycles
system.cpu2.icache.demand_mshr_miss_latency::switch_cpus2.inst      3202915                       # number of demand (read+write) MSHR miss cycles
system.cpu2.icache.demand_mshr_miss_latency::total      3202915                       # number of demand (read+write) MSHR miss cycles
system.cpu2.icache.overall_mshr_miss_latency::switch_cpus2.inst      3202915                       # number of overall MSHR miss cycles
system.cpu2.icache.overall_mshr_miss_latency::total      3202915                       # number of overall MSHR miss cycles
system.cpu2.icache.ReadReq_mshr_miss_rate::switch_cpus2.inst     0.000001                       # mshr miss rate for ReadReq accesses
system.cpu2.icache.ReadReq_mshr_miss_rate::total     0.000001                       # mshr miss rate for ReadReq accesses
system.cpu2.icache.demand_mshr_miss_rate::switch_cpus2.inst     0.000001                       # mshr miss rate for demand accesses
system.cpu2.icache.demand_mshr_miss_rate::total     0.000001                       # mshr miss rate for demand accesses
system.cpu2.icache.overall_mshr_miss_rate::switch_cpus2.inst     0.000001                       # mshr miss rate for overall accesses
system.cpu2.icache.overall_mshr_miss_rate::total     0.000001                       # mshr miss rate for overall accesses
system.cpu2.icache.ReadReq_avg_mshr_miss_latency::switch_cpus2.inst 246378.076923                       # average ReadReq mshr miss latency
system.cpu2.icache.ReadReq_avg_mshr_miss_latency::total 246378.076923                       # average ReadReq mshr miss latency
system.cpu2.icache.demand_avg_mshr_miss_latency::switch_cpus2.inst 246378.076923                       # average overall mshr miss latency
system.cpu2.icache.demand_avg_mshr_miss_latency::total 246378.076923                       # average overall mshr miss latency
system.cpu2.icache.overall_avg_mshr_miss_latency::switch_cpus2.inst 246378.076923                       # average overall mshr miss latency
system.cpu2.icache.overall_avg_mshr_miss_latency::total 246378.076923                       # average overall mshr miss latency
system.cpu2.icache.no_allocate_misses               0                       # Number of misses that were no-allocate
system.cpu2.dcache.replacements                 85433                       # number of replacements
system.cpu2.dcache.tagsinuse                      256                       # Cycle average of tags in use
system.cpu2.dcache.total_refs               194959797                       # Total number of references to valid blocks.
system.cpu2.dcache.sampled_refs                 85689                       # Sample count of references to valid blocks.
system.cpu2.dcache.avg_refs               2275.202150                       # Average number of references to valid blocks.
system.cpu2.dcache.warmup_cycle                     0                       # Cycle when the warmup percentage was hit.
system.cpu2.dcache.occ_blocks::switch_cpus2.data   232.317153                       # Average occupied blocks per requestor
system.cpu2.dcache.occ_blocks::cpu2.data    23.682847                       # Average occupied blocks per requestor
system.cpu2.dcache.occ_percent::switch_cpus2.data     0.907489                       # Average percentage of cache occupancy
system.cpu2.dcache.occ_percent::cpu2.data     0.092511                       # Average percentage of cache occupancy
system.cpu2.dcache.occ_percent::total               1                       # Average percentage of cache occupancy
system.cpu2.dcache.ReadReq_hits::switch_cpus2.data     10990559                       # number of ReadReq hits
system.cpu2.dcache.ReadReq_hits::total       10990559                       # number of ReadReq hits
system.cpu2.dcache.WriteReq_hits::switch_cpus2.data      8157726                       # number of WriteReq hits
system.cpu2.dcache.WriteReq_hits::total       8157726                       # number of WriteReq hits
system.cpu2.dcache.LoadLockedReq_hits::switch_cpus2.data        24157                       # number of LoadLockedReq hits
system.cpu2.dcache.LoadLockedReq_hits::total        24157                       # number of LoadLockedReq hits
system.cpu2.dcache.StoreCondReq_hits::switch_cpus2.data        19288                       # number of StoreCondReq hits
system.cpu2.dcache.StoreCondReq_hits::total        19288                       # number of StoreCondReq hits
system.cpu2.dcache.demand_hits::switch_cpus2.data     19148285                       # number of demand (read+write) hits
system.cpu2.dcache.demand_hits::total        19148285                       # number of demand (read+write) hits
system.cpu2.dcache.overall_hits::switch_cpus2.data     19148285                       # number of overall hits
system.cpu2.dcache.overall_hits::total       19148285                       # number of overall hits
system.cpu2.dcache.ReadReq_misses::switch_cpus2.data       205569                       # number of ReadReq misses
system.cpu2.dcache.ReadReq_misses::total       205569                       # number of ReadReq misses
system.cpu2.dcache.demand_misses::switch_cpus2.data       205569                       # number of demand (read+write) misses
system.cpu2.dcache.demand_misses::total        205569                       # number of demand (read+write) misses
system.cpu2.dcache.overall_misses::switch_cpus2.data       205569                       # number of overall misses
system.cpu2.dcache.overall_misses::total       205569                       # number of overall misses
system.cpu2.dcache.ReadReq_miss_latency::switch_cpus2.data  25095697521                       # number of ReadReq miss cycles
system.cpu2.dcache.ReadReq_miss_latency::total  25095697521                       # number of ReadReq miss cycles
system.cpu2.dcache.demand_miss_latency::switch_cpus2.data  25095697521                       # number of demand (read+write) miss cycles
system.cpu2.dcache.demand_miss_latency::total  25095697521                       # number of demand (read+write) miss cycles
system.cpu2.dcache.overall_miss_latency::switch_cpus2.data  25095697521                       # number of overall miss cycles
system.cpu2.dcache.overall_miss_latency::total  25095697521                       # number of overall miss cycles
system.cpu2.dcache.ReadReq_accesses::switch_cpus2.data     11196128                       # number of ReadReq accesses(hits+misses)
system.cpu2.dcache.ReadReq_accesses::total     11196128                       # number of ReadReq accesses(hits+misses)
system.cpu2.dcache.WriteReq_accesses::switch_cpus2.data      8157726                       # number of WriteReq accesses(hits+misses)
system.cpu2.dcache.WriteReq_accesses::total      8157726                       # number of WriteReq accesses(hits+misses)
system.cpu2.dcache.LoadLockedReq_accesses::switch_cpus2.data        24157                       # number of LoadLockedReq accesses(hits+misses)
system.cpu2.dcache.LoadLockedReq_accesses::total        24157                       # number of LoadLockedReq accesses(hits+misses)
system.cpu2.dcache.StoreCondReq_accesses::switch_cpus2.data        19288                       # number of StoreCondReq accesses(hits+misses)
system.cpu2.dcache.StoreCondReq_accesses::total        19288                       # number of StoreCondReq accesses(hits+misses)
system.cpu2.dcache.demand_accesses::switch_cpus2.data     19353854                       # number of demand (read+write) accesses
system.cpu2.dcache.demand_accesses::total     19353854                       # number of demand (read+write) accesses
system.cpu2.dcache.overall_accesses::switch_cpus2.data     19353854                       # number of overall (read+write) accesses
system.cpu2.dcache.overall_accesses::total     19353854                       # number of overall (read+write) accesses
system.cpu2.dcache.ReadReq_miss_rate::switch_cpus2.data     0.018361                       # miss rate for ReadReq accesses
system.cpu2.dcache.ReadReq_miss_rate::total     0.018361                       # miss rate for ReadReq accesses
system.cpu2.dcache.demand_miss_rate::switch_cpus2.data     0.010622                       # miss rate for demand accesses
system.cpu2.dcache.demand_miss_rate::total     0.010622                       # miss rate for demand accesses
system.cpu2.dcache.overall_miss_rate::switch_cpus2.data     0.010622                       # miss rate for overall accesses
system.cpu2.dcache.overall_miss_rate::total     0.010622                       # miss rate for overall accesses
system.cpu2.dcache.ReadReq_avg_miss_latency::switch_cpus2.data 122079.192490                       # average ReadReq miss latency
system.cpu2.dcache.ReadReq_avg_miss_latency::total 122079.192490                       # average ReadReq miss latency
system.cpu2.dcache.demand_avg_miss_latency::switch_cpus2.data 122079.192490                       # average overall miss latency
system.cpu2.dcache.demand_avg_miss_latency::total 122079.192490                       # average overall miss latency
system.cpu2.dcache.overall_avg_miss_latency::switch_cpus2.data 122079.192490                       # average overall miss latency
system.cpu2.dcache.overall_avg_miss_latency::total 122079.192490                       # average overall miss latency
system.cpu2.dcache.blocked_cycles::no_mshrs            0                       # number of cycles access was blocked
system.cpu2.dcache.blocked_cycles::no_targets            0                       # number of cycles access was blocked
system.cpu2.dcache.blocked::no_mshrs                0                       # number of cycles access was blocked
system.cpu2.dcache.blocked::no_targets              0                       # number of cycles access was blocked
system.cpu2.dcache.avg_blocked_cycles::no_mshrs          nan                       # average number of cycles each access was blocked
system.cpu2.dcache.avg_blocked_cycles::no_targets          nan                       # average number of cycles each access was blocked
system.cpu2.dcache.fast_writes                      0                       # number of fast writes performed
system.cpu2.dcache.cache_copies                     0                       # number of cache copies performed
system.cpu2.dcache.writebacks::writebacks        24219                       # number of writebacks
system.cpu2.dcache.writebacks::total            24219                       # number of writebacks
system.cpu2.dcache.ReadReq_mshr_hits::switch_cpus2.data       120136                       # number of ReadReq MSHR hits
system.cpu2.dcache.ReadReq_mshr_hits::total       120136                       # number of ReadReq MSHR hits
system.cpu2.dcache.demand_mshr_hits::switch_cpus2.data       120136                       # number of demand (read+write) MSHR hits
system.cpu2.dcache.demand_mshr_hits::total       120136                       # number of demand (read+write) MSHR hits
system.cpu2.dcache.overall_mshr_hits::switch_cpus2.data       120136                       # number of overall MSHR hits
system.cpu2.dcache.overall_mshr_hits::total       120136                       # number of overall MSHR hits
system.cpu2.dcache.ReadReq_mshr_misses::switch_cpus2.data        85433                       # number of ReadReq MSHR misses
system.cpu2.dcache.ReadReq_mshr_misses::total        85433                       # number of ReadReq MSHR misses
system.cpu2.dcache.demand_mshr_misses::switch_cpus2.data        85433                       # number of demand (read+write) MSHR misses
system.cpu2.dcache.demand_mshr_misses::total        85433                       # number of demand (read+write) MSHR misses
system.cpu2.dcache.overall_mshr_misses::switch_cpus2.data        85433                       # number of overall MSHR misses
system.cpu2.dcache.overall_mshr_misses::total        85433                       # number of overall MSHR misses
system.cpu2.dcache.ReadReq_mshr_miss_latency::switch_cpus2.data   9387080477                       # number of ReadReq MSHR miss cycles
system.cpu2.dcache.ReadReq_mshr_miss_latency::total   9387080477                       # number of ReadReq MSHR miss cycles
system.cpu2.dcache.demand_mshr_miss_latency::switch_cpus2.data   9387080477                       # number of demand (read+write) MSHR miss cycles
system.cpu2.dcache.demand_mshr_miss_latency::total   9387080477                       # number of demand (read+write) MSHR miss cycles
system.cpu2.dcache.overall_mshr_miss_latency::switch_cpus2.data   9387080477                       # number of overall MSHR miss cycles
system.cpu2.dcache.overall_mshr_miss_latency::total   9387080477                       # number of overall MSHR miss cycles
system.cpu2.dcache.ReadReq_mshr_miss_rate::switch_cpus2.data     0.007631                       # mshr miss rate for ReadReq accesses
system.cpu2.dcache.ReadReq_mshr_miss_rate::total     0.007631                       # mshr miss rate for ReadReq accesses
system.cpu2.dcache.demand_mshr_miss_rate::switch_cpus2.data     0.004414                       # mshr miss rate for demand accesses
system.cpu2.dcache.demand_mshr_miss_rate::total     0.004414                       # mshr miss rate for demand accesses
system.cpu2.dcache.overall_mshr_miss_rate::switch_cpus2.data     0.004414                       # mshr miss rate for overall accesses
system.cpu2.dcache.overall_mshr_miss_rate::total     0.004414                       # mshr miss rate for overall accesses
system.cpu2.dcache.ReadReq_avg_mshr_miss_latency::switch_cpus2.data 109876.517002                       # average ReadReq mshr miss latency
system.cpu2.dcache.ReadReq_avg_mshr_miss_latency::total 109876.517002                       # average ReadReq mshr miss latency
system.cpu2.dcache.demand_avg_mshr_miss_latency::switch_cpus2.data 109876.517002                       # average overall mshr miss latency
system.cpu2.dcache.demand_avg_mshr_miss_latency::total 109876.517002                       # average overall mshr miss latency
system.cpu2.dcache.overall_avg_mshr_miss_latency::switch_cpus2.data 109876.517002                       # average overall mshr miss latency
system.cpu2.dcache.overall_avg_mshr_miss_latency::total 109876.517002                       # average overall mshr miss latency
system.cpu2.dcache.no_allocate_misses               0                       # Number of misses that were no-allocate

---------- End Simulation Statistics   ----------
